20
 energy: -42.089020344940 gnorm: 0.284343692480 xtb: 6.3.3 (4ae9cef)
C         0.22300000000000   -0.23800000000000   -1.91900000000000
C         0.82200000000000    0.94500000000000   -1.49200000000000
C        -0.15900000000000    1.72600000000000   -0.88600000000000
C        -1.12600000000000   -0.18800000000000   -1.57800000000000
C        -1.36200000000000    1.02600000000000   -0.94000000000000
C        -1.38200000000000   -1.21200000000000   -0.67000000000000
C         0.80600000000000   -1.29400000000000   -1.22300000000000
C        -0.18700000000000   -1.89300000000000   -0.45300000000000
C         1.77500000000000    0.62500000000000   -0.53000000000000
C         1.76400000000000   -0.75700000000000   -0.36600000000000
C         0.18600000000000    1.89300000000000    0.45200000000000
C         1.38100000000000    1.21100000000000    0.66900000000000
C        -1.76500000000000    0.75800000000000    0.36600000000000
C        -1.77600000000000   -0.62500000000000    0.53000000000000
C        -0.80600000000000    1.29300000000000    1.22200000000000
C         0.15800000000000   -1.72700000000000    0.88600000000000
C         1.36100000000000   -1.02600000000000    0.93900000000000
C         1.12500000000000    0.18700000000000    1.57800000000000
C        -0.82200000000000   -0.94500000000000    1.49100000000000
C        -0.22400000000000    0.23900000000000    1.91900000000000
20
 energy: -42.168664844159 gnorm: 0.094520081730 xtb: 6.3.3 (4ae9cef)
C         0.22919366167261   -0.24502690479389   -1.96713362527992
C         0.84320872403487    0.96904680349422   -1.52942702096559
C        -0.16236357987775    1.77008466616404   -0.90766079360599
C        -1.15478277254874   -0.19342810686810   -1.61754381266262
C        -1.39677049787504    1.05174831258820   -0.96259639318000
C        -1.41779965822959   -1.24277434109831   -0.68813008729597
C         0.82610377997127   -1.32601042908935   -1.25520080524166
C        -0.19187163652343   -1.94208422799888   -0.46322869842397
C         1.82047016034048    0.64169573670988   -0.54456221716404
C         1.80932518830875   -0.77716813721397   -0.37422837029606
C         0.19103131535539    1.94216747200119    0.46245334832896
C         1.41685798048377    1.24212321416632    0.68735105390766
C        -1.81038504306354    0.77759029796049    0.37401255090154
C        -1.82141598937306   -0.64179064406544    0.54435704005977
C        -0.82636536593193    1.32518852952024    1.25427028143411
C         0.16144648843907   -1.77089906380526    0.90750697972891
C         1.39575888266360   -1.05179169578151    0.96181935286455
C         1.15393229550688    0.19284741377906    1.61741421636059
C        -0.84350261121531   -0.96904353346262    1.52841070721361
C        -0.23007132213828    0.24552463779366    1.96711629331610
20
 energy: -42.179560535131 gnorm: 0.032286479515 xtb: 6.3.3 (4ae9cef)
C         0.23320600149762   -0.25056751880871   -1.98689998396517
C         0.85503051058442    0.97952277502756   -1.54395351875770
C        -0.16252932073658    1.79036469534485   -0.91441289985553
C        -1.16837424768747   -0.19825923897485   -1.63310516443794
C        -1.41298301931480    1.06221798766222   -0.96958997231630
C        -1.43669591401852   -1.25918133923994   -0.69719250428875
C         0.83594501368751   -1.34187089468792   -1.27116030532520
C        -0.19500824035975   -1.96738498403618   -0.46845101803550
C         1.84429621287337    0.65073090879685   -0.55182817030737
C         1.83242190974413   -0.78703246610374   -0.37842171115143
C         0.19420624604837    1.96743062167975    0.46782282057356
C         1.43588011740291    1.25879936019204    0.69654319841767
C        -1.83341244505250    0.78705100806091    0.37808707441748
C        -1.84517851843105   -0.65094015692600    0.55148920792992
C        -0.83648904098813    1.34127996103240    1.27038465251241
C         0.16164705708520   -1.79089434865407    0.91409181619342
C         1.41205082800011   -1.06230328333976    0.96899997401771
C         1.16763846495828    0.19796666325488    1.63281378470736
C        -0.85561834787295   -0.97960245858889    1.54306280804681
C        -0.23403326742016    0.25067270830858    1.98671991162454
20
 energy: -42.181138521868 gnorm: 0.037138507872 xtb: 6.3.3 (4ae9cef)
C         0.23655993940110   -0.25634579319384   -1.98631915251759
C         0.86165708626532    0.98018158911187   -1.54153893171846
C        -0.16018122414897    1.79441801019466   -0.90915531872136
C        -1.17157800881107   -0.20392525867845   -1.63076040334060
C        -1.41696253450249    1.06198086709237   -0.96421415146432
C        -1.44549038193902   -1.26741513774932   -0.70035069019183
C         0.84006456779165   -1.34867384478535   -1.27719307942206
C        -0.19709802693416   -1.97854483614609   -0.47127760570600
C         1.85551423880440    0.65502409416701   -0.55441428682959
C         1.84230229018151   -0.79062580045896   -0.38085669422880
C         0.19630397824494    1.97852938088150    0.47070397981931
C         1.44470656598311    1.26713342454355    0.69977537638819
C        -1.84322482189275    0.79049661981985    0.38044102169015
C        -1.85637235484614   -0.65526552517891    0.55401697619044
C        -0.84074340615471    1.34823923651715    1.27650768571659
C         0.15933739255960   -1.79478418673077    0.90874420239089
C         1.41609147763869   -1.06211671547503    0.96370772027150
C         1.17085822376702    0.20373638998701    1.63037015418862
C        -0.86237748611752   -0.98031913570883    1.54078168501764
C        -0.23736751529052    0.25627662179055    1.98603151246728
20
 energy: -42.176741454993 gnorm: 0.071594075813 xtb: 6.3.3 (4ae9cef)
C         0.25264542020435   -0.28349684512810   -1.97187612682802
C         0.88771311733974    0.97463691682222   -1.51896251356728
C        -0.14984125469018    1.80232672999475   -0.87660246384442
C        -1.17675519114994   -0.22962186042070   -1.60634840604604
C        -1.42740140811012    1.05603432406962   -0.93115095598593
C        -1.47647173107300   -1.29777661607248   -0.71107530720662
C         0.85723160742959   -1.37574060083743   -1.30025413210961
C        -0.20329837316570   -2.02086817090464   -0.48257894096171
C         1.89700201969982    0.66978006799434   -0.56459628993948
C         1.87938837122388   -0.80556776242932   -0.39154470886069
C         0.20253486609141    2.02060659025158    0.48218822158846
C         1.47576719595906    1.29780839003360    0.71076872975475
C        -1.88004448902528    0.80498480501771    0.39084159329974
C        -1.89779250251046   -0.67010769718558    0.56401159576305
C        -0.85835255412531    1.37589054967921    1.29987657274406
C         0.14913825146606   -1.80214558583132    0.87585845688869
C         1.42673728394983   -1.05637284559817    0.93089733927761
C         1.17602341620282    0.22972898522252    1.60562353618827
C        -0.88883581762243   -0.97496250050381    1.51870554682156
C        -0.25338822809414    0.28286312582601    1.97121825302361
20
 energy: -42.182538262944 gnorm: 0.018798222354 xtb: 6.3.3 (4ae9cef)
C         0.24210411706456   -0.26544642079909   -1.97792812344068
C         0.86974232993676    0.97669833972719   -1.53104019131045
C        -0.15624931149419    1.79458899991389   -0.89608998302347
C        -1.17093687955822   -0.21253300565613   -1.61888039251821
C        -1.41804780942584    1.05831045549199   -0.95076154663450
C        -1.45538086564343   -1.27741241963022   -0.70356547108823
C         0.84611611068925   -1.35783700781613   -1.28486509908998
C        -0.19897902483960   -1.99322059881066   -0.47487409120209
C         1.86954447714470    0.66013991792649   -0.55837697307021
C         1.85455640004267   -0.79583452462373   -0.38473414749685
C         0.19818757258009    1.99308310269599    0.47437531527081
C         1.45461665039838    1.27724090087072    0.70308923870754
C        -1.85537466832047    0.79556138573359    0.38421143678142
C        -1.87037071825583   -0.66039423097241    0.55789994811229
C        -0.84694954951295    1.35761460734232    1.28431413346597
C         0.15546711088497   -1.79474732185311    0.89557024859073
C         1.41726415044856   -1.05852594267117    0.95031724516570
C         1.17018571261077    0.21241643999963    1.61836086738181
C        -0.87059449883153   -0.97689354138019    1.53049989576169
C        -0.24290130591865    0.26519086451106    1.97747768963670
20
 energy: -42.182795524386 gnorm: 0.013835966789 xtb: 6.3.3 (4ae9cef)
C         0.24211326205746   -0.26467639448504   -1.97557489691614
C         0.86869861431244    0.97553195996088   -1.52949440172399
C        -0.15632932398597    1.79276638225313   -0.89525137143699
C        -1.16827629481045   -0.21159860235658   -1.61612538084336
C        -1.41567273241837    1.05751335382582   -0.94960373636479
C        -1.45332142335947   -1.27589247701878   -0.70262606211737
C         0.84611265588345   -1.35711707974979   -1.28430101322540
C        -0.19826701667054   -1.99261719036644   -0.47404340643204
C         1.86816259656424    0.65983124023122   -0.55906099763661
C         1.85310292339688   -0.79588243276425   -0.38473845482253
C         0.19747486427380    1.99246725607702    0.47355011618114
C         1.45254182882723    1.27570941901703    0.70214568834081
C        -1.85391856448981    0.79563576172062    0.38421607995163
C        -1.86899080543996   -0.66007053869094    0.55857747727651
C        -0.84692777372762    1.35689557250258    1.28375630348971
C         0.15554828064523   -1.79294658596722    0.89474515574923
C         1.41488075456965   -1.05772709790457    0.94913533243605
C         1.16750506264119    0.21145353846268    1.61561166018686
C        -0.86952440057124   -0.97571862762619    1.52896200169908
C        -0.24291250769814    0.26444254287882    1.97511990620820
20
 energy: -42.183191527390 gnorm: 0.013286537729 xtb: 6.3.3 (4ae9cef)
C         0.24417868795466   -0.26421847690207   -1.96731018343262
C         0.86920285162243    0.97292956205339   -1.52413770238451
C        -0.15519398468426    1.78988044744228   -0.89049244305404
C        -1.15996422758682   -0.21063960604714   -1.60518233884948
C        -1.40891437176298    1.05516756882262   -0.94309819972748
C        -1.44914443912438   -1.27431493280826   -0.69926634670692
C         0.84844130644320   -1.35788531348546   -1.28455054348869
C        -0.19703622309927   -1.99645801463187   -0.47222002715487
C         1.86900377024382    0.66137441371398   -0.56314996480590
C         1.85208313884475   -0.79750260438463   -0.38661362128704
C         0.19624124209165    1.99624227017657    0.47174552084233
C         1.44833780930092    1.27412332326495    0.69879295126669
C        -1.85287250964859    0.79730001845649    0.38608660996757
C        -1.86982802258433   -0.66157890649103    0.56264281395778
C        -0.84923894077718    1.35770597062292    1.28405341174850
C         0.15441682533993   -1.79007213455969    0.88999124600559
C         1.40811471592129   -1.05538281693988    0.94258186898172
C         1.15914026888639    0.21043282885441    1.60466300452781
C        -0.86998889302761   -0.97310915334020    1.52365896810610
C        -0.24497900435359    0.26400555618262    1.96680497548746
20
 energy: -42.183605723563 gnorm: 0.028418034733 xtb: 6.3.3 (4ae9cef)
C         0.24728886623411   -0.26281882238855   -1.96003941624210
C         0.87222521738580    0.97340652431129   -1.52180196232582
C        -0.15316045208334    1.79100367242241   -0.88749263159616
C        -1.15109513022901   -0.20891380339590   -1.59444238102802
C        -1.40187491505338    1.05415374214118   -0.93702539555753
C        -1.44380366786031   -1.27331499855173   -0.69321362642964
C         0.85182544037530   -1.35900098836268   -1.28436270719838
C        -0.19662280595069   -2.00328794196920   -0.46968237921728
C         1.87215273347117    0.66503368226854   -0.56899665193711
C         1.85082558158153   -0.79913765475993   -0.38979802625570
C         0.19582468928481    2.00302056313308    0.46920921468618
C         1.44298686521576    1.27311985165135    0.69274314449442
C        -1.85160069195819    0.79897286906402    0.38927403263572
C        -1.87296945791033   -0.66521298955237    0.56847687416689
C        -0.85260930723368    1.35884681001393    1.28390204192972
C         0.15237647264050   -1.79119976108028    0.88699213794038
C         1.40107056749092   -1.05436407179806    0.93647794585626
C         1.15024504915967    0.20866247692779    1.59392876822318
C        -0.87299397399390   -0.97359260516576    1.52135793828891
C        -0.24809108056675    0.26262344509087    1.95949307956608
20
 energy: -42.184473137723 gnorm: 0.040872342906 xtb: 6.3.3 (4ae9cef)
C         0.25051264513625   -0.26023509614337   -1.95458758493703
C         0.87592546599113    0.97595312551108   -1.52239128624727
C        -0.15108865568370    1.79450502780394   -0.88683590415819
C        -1.14254672626707   -0.20609643635185   -1.58559259849894
C        -1.39508012904030    1.05439970928230   -0.93266557833573
C        -1.43672465795585   -1.27138864969072   -0.68546099230486
C         0.85515993065270   -1.35914269475360   -1.28327928437973
C        -0.19637607230709   -2.01000320842366   -0.46637717861431
C         1.87503506345362    0.66915002121689   -0.57531006514680
C         1.84821281417300   -0.80039947478542   -0.39317562793874
C         0.19557898235312    2.00970732318227    0.46590239736143
C         1.43590089901840    1.27118893456419    0.68498875006411
C        -1.84898657423446    0.80026561609662    0.39265740946805
C        -1.87585159959357   -0.66931593453781    0.57478774462094
C        -0.85592545549847    1.35899516327608    1.28283175930723
C         0.15029574677584   -1.79471297564812    0.88633940089798
C         1.39426861615239   -1.05460049039008    0.93209416988373
C         1.14168434896651    0.20581487098011    1.58509322978208
C        -0.87667942349768   -0.97614479978301    1.52196093694631
C        -0.25131521859478    0.26005996859417    1.95402030222973
20
 energy: -42.185787216302 gnorm: 0.044486070295 xtb: 6.3.3 (4ae9cef)
C         0.25445122432354   -0.25674404868115   -1.94905627669235
C         0.88051022487402    0.97960937825691   -1.52449038994554
C        -0.14894975723581    1.79962060253084   -0.88704165093429
C        -1.13281833399971   -0.20232282527077   -1.57624131568021
C        -1.38735161030979    1.05540920849565   -0.92827842288812
C        -1.42700284122780   -1.26807727819474   -0.67549349068807
C         0.85946624997649   -1.35900613632720   -1.28183948735476
C        -0.19587711919583   -2.01767266788230   -0.46220275120092
C         1.87807854036425    0.67384262459784   -0.58292215401010
C         1.84467013642219   -0.80215430918133   -0.39733482375732
C         0.19508345171283    2.01735306208935    0.46172729221471
C         1.42617094141229    1.26787200938175    0.67501926623771
C        -1.84544488406769    0.80205161971207    0.39682179640185
C        -1.87889817090189   -0.67399838378200    0.58239934802599
C        -0.86020867334658    1.35885979765179    1.28140011856327
C         0.14814941113108   -1.79984075936154    0.88655155728485
C         1.38653020072025   -1.05559975949244    0.92768390904626
C         1.13194442412610    0.20201389037032    1.57575683789134
C        -0.88124887380514   -0.97980554286645    1.52406887382394
C        -0.25525454097281    0.25658951795340    1.94847176366178
20
 energy: -42.167911178830 gnorm: 0.141368366632 xtb: 6.3.3 (4ae9cef)
C         0.28183287335485   -0.22677599291002   -1.92910477584302
C         0.91888058591251    1.01875508556272   -1.56358717411813
C        -0.13740639962752    1.85487168444302   -0.90544200501950
C        -1.07638668541098   -0.17110458803218   -1.53387074592163
C        -1.34281984078863    1.07357564203505   -0.91322884431970
C        -1.34746025444058   -1.23738175947739   -0.59588872031924
C         0.89461126591335   -1.35438379039386   -1.26905355768018
C        -0.19563296653806   -2.07215026021435   -0.43138431794196
C         1.90128891406703    0.70947738423831   -0.63586768016556
C         1.81510883661132   -0.81656397899792   -0.42920298950943
C         0.19487023024772    2.07185892861693    0.43084020597835
C         1.34662642214832    1.23713462729267    0.59534788335668
C        -1.81597363819943    0.81658852450724    0.42877784157627
C        -1.90213747903716   -0.70966973133574    0.63541148340061
C        -0.89519445556505    1.35410018927322    1.26852102250557
C         0.13653452900774   -1.85515348271264    0.90499604627018
C         1.34193935330902   -1.07367525437423    0.91261807955440
C         1.07557838571480    0.17077461664430    1.53351518551934
C        -0.91960905057610   -1.01900387649055    1.56304787927426
C        -0.28265062610316    0.22672603232542    1.92855518340270
20
 energy: -42.187948842572 gnorm: 0.017044224587 xtb: 6.3.3 (4ae9cef)
C         0.26457062221639   -0.24545617686344   -1.95178665325371
C         0.89579571429207    0.99978663321372   -1.54929014712074
C        -0.14599183685780    1.82758923634300   -0.90179643043849
C        -1.11779406556757   -0.19116431325337   -1.56878133738801
C        -1.37750852427486    1.06667660292012   -0.92907129370757
C        -1.39894087914236   -1.25674381020009   -0.64686400815582
C         0.87030905008043   -1.35772772469044   -1.27909092100007
C        -0.19747828541566   -2.03679403519704   -0.45236655462465
C         1.88748449683139    0.68679132935958   -0.59942184267023
C         1.83591256787909   -0.80603637227464   -0.40667526326900
C         0.19669984586761    2.03655739127623    0.45185056410927
C         1.39814144353434    1.25653221942954    0.64636444324042
C        -1.83674637715701    0.80591866315616    0.40618748098788
C        -1.88830298757442   -0.68699822675213    0.59894651865480
C        -0.87103505413224    1.35749248887597    1.27855496582764
C         0.14516599265494   -1.82781284641191    0.90131549732812
C         1.37667399370475   -1.06683946031534    0.92853021792371
C         1.11700316578052    0.19092492733529    1.56835080296024
C        -0.89657991717586   -1.00000845717984    1.54877464711177
C        -0.26537896554375    0.24531193122863    1.95126931348444
20
 energy: -42.188424825857 gnorm: 0.007707559979 xtb: 6.3.3 (4ae9cef)
C         0.26052035059889   -0.24791623548284   -1.95564841245899
C         0.89219797507863    0.99640479967044   -1.54859516649799
C        -0.14893482055430    1.82367076088324   -0.90176563023214
C        -1.12658074555383   -0.19365425201373   -1.57826106353475
C        -1.38373734480349    1.06562779052423   -0.93335798158664
C        -1.40531530521310   -1.25786542083003   -0.65462707055486
C         0.86856853275812   -1.35750240123286   -1.27969952118142
C        -0.19805470763106   -2.02976682188088   -0.45554050151469
C         1.88375025161542    0.68261517983549   -0.59266008096165
C         1.83765643842943   -0.80571843355143   -0.40417132817680
C         0.19726762035463    2.02956575873625    0.45502084022019
C         1.40451946678088    1.25765624113859    0.65411482730188
C        -1.83849165107117    0.80557163394211    0.40369335867731
C        -1.88456226431581   -0.68282454809555    0.59217560019436
C        -0.86931100429992    1.35726345394900    1.27916941497822
C         0.14811689625287   -1.82389035299894    0.90127506582181
C         1.38291148682052   -1.06580445671063    0.93284984673704
C         1.12579717296701    0.19344052386280    1.57780734953161
C        -0.89299365221898   -0.99661929957608    1.54806146901047
C        -0.26132469599474    0.24774607983080    1.95515898422704
20
 energy: -42.188485559712 gnorm: 0.005253439525 xtb: 6.3.3 (4ae9cef)
C         0.25943420038035   -0.24826573391282   -1.95614850190197
C         0.89184487895473    0.99537651557913   -1.54929001062185
C        -0.15045157552673    1.82335277728135   -0.90166856612702
C        -1.12921939849580   -0.19397901148894   -1.58161174039685
C        -1.38522806512889    1.06560315244707   -0.93461206595225
C        -1.40572731517072   -1.25716670598973   -0.65598608935022
C         0.86966758384023   -1.35788201649165   -1.28035340233468
C        -0.19829814836260   -2.02821875719055   -0.45592725550329
C         1.88230368122561    0.68168940822993   -0.59104481657766
C         1.83829195108779   -0.80681461604057   -0.40416324746755
C         0.19750718482789    2.02803373858549    0.45541458230468
C         1.40493180970202    1.25696098919692    0.65547339798588
C        -1.83912160081396    0.80664714246793    0.40368011514274
C        -1.88310886759810   -0.68189761742053    0.59055307442786
C        -0.87042934195409    1.35765481160288    1.27983095061519
C         0.14964142583431   -1.82356984551802    0.90117093281378
C         1.38441121411651   -1.06579292553914    0.93411569033343
C         1.12843364334947    0.19377419198028    1.58114116232876
C        -0.89264665721728   -0.99558575533294    1.54875942891766
C        -0.26023660305073    0.24808025755392    1.95566636136336
20
 energy: -42.188525181038 gnorm: 0.003016852900 xtb: 6.3.3 (4ae9cef)
C         0.25892421140287   -0.24805277657469   -1.95565184792102
C         0.89191700535979    0.99464161673536   -1.55070015359952
C        -0.15211774959183    1.82374853883156   -0.90173203090564
C        -1.13090317699172   -0.19382340053933   -1.58418600102716
C        -1.38574951936322    1.06590077455433   -0.93526374808138
C        -1.40492869643874   -1.25580740791814   -0.65632081095839
C         0.87179491488821   -1.35875701561174   -1.28142644901610
C        -0.19823726083134   -2.02697217356368   -0.45561189662918
C         1.88024087862653    0.68084183737378   -0.59002211217190
C         1.83912697263140   -0.80862105532248   -0.40472319561420
C         0.19744179301599    2.02678917656564    0.45511047526435
C         1.40413029292150    1.25560369905836    0.65581251667274
C        -1.83994745325739    0.80843165691897    0.40423242891774
C        -1.88104062170457   -0.68104772961227    0.58952514021665
C        -0.87258124389510    1.35854352161757    1.28091257922461
C         0.15131912551308   -1.82395652579031    0.90123000866330
C         1.38494530536106   -1.06610161699309    0.93477484443130
C         1.13010700570700    0.19362540793604    1.58369084613113
C        -0.89271821421108   -0.99484059221893    1.55018133938820
C        -0.25972356914244    0.24785406455306    1.95516806701448
20
 energy: -42.188545946666 gnorm: 0.002756741902 xtb: 6.3.3 (4ae9cef)
C         0.25914051115431   -0.24747951373481   -1.95476679689018
C         0.89208878852990    0.99460500841983   -1.55226121351717
C        -0.15314192715162    1.82454632918918   -0.90219259241273
C        -1.13109785824682   -0.19336408281833   -1.58502372676681
C        -1.38535002133439    1.06639213050631   -0.93519329268866
C        -1.40391543328460   -1.25472809445952   -0.65600937262408
C         0.87353260812215   -1.35969409925816   -1.28239100509928
C        -0.19773285364807   -2.02590043469628   -0.45489709919429
C         1.87808710855503    0.68000762830166   -0.58968043312876
C         1.83990562309727   -0.81001464904462   -0.40534944775592
C         0.19693410527771    2.02570906561195    0.45440276725294
C         1.40311427646186    1.25452416249645    0.65550740175433
C        -1.84071945511755    0.80981457697080    0.40485248359291
C        -1.87888646411174   -0.68021051273215    0.58918263313190
C        -0.87433364408509    1.35948733373195    1.28188182518124
C         0.15234952139421   -1.82474567599048    0.90169109620467
C         1.38455413107310   -1.06659700913252    0.93470296044564
C         1.13029277092435    0.19316731790762    1.58451251603128
C        -0.89288450991846   -0.99479603243870    1.55175399207057
C        -0.25993727769156    0.24727655116983    1.95427730441242
20
 energy: -42.188568941706 gnorm: 0.003148556511 xtb: 6.3.3 (4ae9cef)
C         0.25989362959864   -0.24642990480613   -1.95360072269861
C         0.89240961087813    0.99520443197475   -1.55498756448737
C        -0.15424789247664    1.82619276114556   -0.90343049472124
C        -1.13048603752028   -0.19246209481305   -1.58527024436274
C        -1.38436011517530    1.06730483057371   -0.93482748691630
C        -1.40257618994586   -1.25348028533432   -0.65538293354981
C         0.87560294042433   -1.36103532118073   -1.28367992674327
C        -0.19656019762830   -2.02394148957242   -0.45359860844189
C         1.87450396019031    0.67850206981695   -0.58947222665222
C         1.84100966122565   -0.81163591114203   -0.40621263942116
C         0.19575750916027    2.02374031017515    0.45310861345081
C         1.40177383783306    1.25327744371250    0.65488950804169
C        -1.84181244375597    0.81142642819887    0.40570679839680
C        -1.87530190039145   -0.67869970111653    0.58897356434009
C        -0.87641853453290    1.36083681389363    1.28317611816490
C         0.15345735608486   -1.82638617857422    0.90293111130953
C         1.38357148904082   -1.06751307630329    0.93433011016374
C         1.12967412275997    0.19226449734656    1.58474854856197
C        -0.89320102493400   -0.99539171934955    1.55449513169971
C        -0.26068978083536    0.24622609535460    1.95310334386538
20
 energy: -42.188589167217 gnorm: 0.003191572234 xtb: 6.3.3 (4ae9cef)
C         0.26083189488447   -0.24529309402881   -1.95299654043729
C         0.89288814185468    0.99639374231122   -1.55828890374624
C        -0.15511204734352    1.82836592462705   -0.90526954808334
C        -1.12930601631592   -0.19135938190565   -1.58499535574506
C        -1.38331790998427    1.06835707351318   -0.93457246729872
C        -1.40152027117607   -1.25256457079478   -0.65483213241361
C         0.87709184123476   -1.36215172691548   -1.28473281895027
C        -0.19502962942510   -2.02134827931724   -0.45217757685653
C         1.87047426797823    0.67665158044558   -0.58941044710149
C         1.84192381438450   -0.81277484647162   -0.40694678769206
C         0.19422480434371    2.02113797982689    0.45168600651775
C         1.40071793217830    1.25236287042127    0.65434276554968
C        -1.84272012568601    0.81256365073730    0.40643903644521
C        -1.87127436941305   -0.67684710489793    0.58891320793515
C        -0.87790966422462    1.36195417940026    1.28423146566787
C         0.15431829608743   -1.82855492920061    0.90477287085287
C         1.38253026462701   -1.06856272986915    0.93406826875154
C         1.12849304598317    0.19116137668641    1.58447304611788
C        -0.89367669486092   -0.99658326099509    1.55780329236291
C        -0.26162757512680    0.24509154642719    1.95249261812373
20
 energy: -42.188608803268 gnorm: 0.002811439186 xtb: 6.3.3 (4ae9cef)
C         0.26174556979651   -0.24414913622971   -1.95325219718796
C         0.89367656889698    0.99808555368002   -1.56232942333867
C        -0.15595845703423    1.83112549990150   -0.90769242314624
C        -1.12780777127594   -0.19004228806071   -1.58454716782630
C        -1.38247400529725    1.06950118608528   -0.93471087701765
C        -1.40079039071671   -1.25189154312344   -0.65455875438664
C         0.87803159765802   -1.36291115031749   -1.28548877954814
C        -0.19316170247106   -2.01784901264318   -0.45066776726809
C         1.86592032409268    0.67439136684399   -0.58943216145193
C         1.84255678746743   -0.81349134289496   -0.40751846907034
C         0.19235657413434    2.01763037113865    0.45016906866921
C         1.39998940604991    1.25169085316194    0.65406925825232
C        -1.84335481494826    0.81328557962299    0.40701642214034
C        -1.86672766286494   -0.67458993091987    0.58893952490745
C        -0.87883790798880    1.36270645610663    1.28498717165670
C         0.15515895214086   -1.83130796731812    0.90719666795846
C         1.38168093426087   -1.06969963086055    0.93420438134755
C         1.12699945119767    0.18984534016083    1.58403213500478
C        -0.89446294383655   -0.99828163332140    1.56183954029054
C        -0.26254050926153    0.24395142898761    1.95274385001463
20
 energy: -42.188622361822 gnorm: 0.002246786220 xtb: 6.3.3 (4ae9cef)
C         0.26220218944110   -0.24332142566654   -1.95430666331000
C         0.89462521417346    0.99958079596049   -1.56597879708106
C        -0.15683119787895    1.83365189756434   -0.90989032844201
C        -1.12666061901321   -0.18887296166930   -1.58436651960630
C        -1.38220397398109    1.07040759714946   -0.93539429884512
C        -1.40041872215867   -1.25141300154583   -0.65467091916430
C         0.87836223756048   -1.36304373830549   -1.28570871277195
C        -0.19157420943172   -2.01433912522739   -0.44949370961178
C         1.86214654175780    0.67241722662671   -0.58949399020337
C         1.84271358124839   -0.81379436899640   -0.40781080933930
C         0.19076928118233    2.01413388139412    0.44898722074740
C         1.39962352119825    1.25121853864736    0.65417434656687
C        -1.84350691990840    0.81359042600627    0.40730668178982
C        -1.86295194435619   -0.67261613791412    0.58899522959210
C        -0.87916371467283    1.36284407522392    1.28521026170646
C         0.15602335353668   -1.83384796288449    0.90939295414213
C         1.38140669092781   -1.07060808956098    0.93488804613043
C         1.12586651499378    0.18867682702330    1.58387138171520
C        -0.89542519315178   -0.99979056566401    1.56548454302492
C        -0.26300263146723    0.24312611183857    1.95380408295984
20
 energy: -42.188626935500 gnorm: 0.001196622657 xtb: 6.3.3 (4ae9cef)
C         0.26183314017295   -0.24344857083374   -1.95495870777136
C         0.89485844588704    0.99935991580026   -1.56606237589083
C        -0.15721215429701    1.83367915144398   -0.90984040474280
C        -1.12691142083337   -0.18884724354581   -1.58466648421694
C        -1.38268702314190    1.07036088687758   -0.93594425285320
C        -1.40059609570768   -1.25132260118840   -0.65503124694153
C         0.87815453370402   -1.36264277409895   -1.28541330804211
C        -0.19160221372964   -2.01378761274592   -0.44958758304427
C         1.86225633045329    0.67239102610288   -0.58947930385051
C         1.84249479357174   -0.81374234835395   -0.40763701980413
C         0.19080056528343    2.01358239924658    0.44908528823844
C         1.39979902906408    1.25112447911856    0.65453252568113
C        -1.84329388573368    0.81353980304293    0.40713714199783
C        -1.86306003368042   -0.67259159440067    0.58897967896837
C        -0.87895470007833    1.36244133505865    1.28491405728919
C         0.15640889665398   -1.83387378943146    0.90934235542527
C         1.38188684275491   -1.07055997119614    0.93544253780275
C         1.12611320111243    0.18864977398660    1.58416728832744
C        -0.89565594369856   -0.99956317230626    1.56556340877021
C        -0.26263230775727    0.24325090742329    1.95445640465704
20
 energy: -42.188628940426 gnorm: 0.000628905813 xtb: 6.3.3 (4ae9cef)
C         0.26161180044384   -0.24343138097599   -1.95575860296113
C         0.89546656580912    0.99943041970277   -1.56639664898759
C        -0.15757523878035    1.83426055114112   -0.91007746978396
C        -1.12685481850040   -0.18867349884049   -1.58458178990646
C        -1.38305549740650    1.07045651093801   -0.93649896623799
C        -1.40066583419095   -1.25121304552540   -0.65520278870988
C         0.87784644796627   -1.36202627696804   -1.28478465359286
C        -0.19148741876320   -2.01284740339124   -0.44943076529753
C         1.86244375444476    0.67247741263299   -0.58982051682189
C         1.84223533145976   -0.81363931226934   -0.40757155191109
C         0.19068851200207    2.01264778935061    0.44893248286648
C         1.39986549089447    1.25101161522529    0.65470212198505
C        -1.84303748179599    0.81343896458126    0.40707257784439
C        -1.86324219538810   -0.67267753145461    0.58931929202077
C        -0.87864709073790    1.36182655208003    1.28428521993662
C         0.15677709236562   -1.83446007237923    0.90957683554790
C         1.38225369462012   -1.07065673216499    0.93600105559079
C         1.12605358855448    0.18847260060511    1.58408058674514
C        -0.89626539564305   -0.99962727367289    1.56589422619992
C        -0.26241130735407    0.24323011138502    1.95525935547330
20
 energy: -42.188625337872 gnorm: 0.002048955265 xtb: 6.3.3 (4ae9cef)
C         0.26139402687878   -0.24340452484135   -1.95658219241291
C         0.89607122363501    0.99951681058956   -1.56675661482649
C        -0.15793660389067    1.83486462534015   -0.91033561492415
C        -1.12678725731241   -0.18849011190804   -1.58450666769578
C        -1.38341289309682    1.07056293440417   -0.93706677523703
C        -1.40071161671589   -1.25109053432307   -0.65536989305843
C         0.87752637243939   -1.36140189036365   -1.28415865363119
C        -0.19136559865500   -2.01191055377777   -0.44926182526748
C         1.86260546845801    0.67256400591006   -0.59016960075447
C         1.84194975818274   -0.81353218648689   -0.40749843166148
C         0.19056943429486    2.01171653970782    0.44876755551644
C         1.39990799710954    1.25088579546843    0.65486728107726
C        -1.84275496701094    0.81333403669512    0.40700036135027
C        -1.86339864637363   -0.67276367495619    0.58966677592914
C        -0.87832749171225    1.36120388026405    1.28365903664794
C         0.15714356876037   -1.83506903064477    0.90983239638937
C         1.38260946732449   -1.07076429289459    0.93657266902007
C         1.12598301666882    0.18828578454102    1.58400345695167
C        -0.89687138550744   -0.99970726197328    1.56625073649645
C        -0.26219387347695    0.24319964924923    1.95608600009078
20
 energy: -42.188629031174 gnorm: 0.000883138569 xtb: 6.3.3 (4ae9cef)
C         0.26162531478142   -0.24335218775456   -1.95593777184203
C         0.89564621271408    0.99955257694594   -1.56657774431211
C        -0.15767048216203    1.83465356129388   -0.91031746185830
C        -1.12674353994438   -0.18855123241346   -1.58445253515506
C        -1.38307519719921    1.07054950427080   -0.93660129426350
C        -1.40063944182780   -1.25115804594311   -0.65518696923386
C         0.87774941722364   -1.36182809840554   -1.28454679376252
C        -0.19136222589281   -2.01238059693097   -0.44926637196536
C         1.86241697812710    0.67248584135189   -0.58997170256554
C         1.84226386466704   -0.81367128817002   -0.40758387069774
C         0.19056366404717    2.01218271533222    0.44876861090918
C         1.39983805331029    1.25095611452413    0.65468606933313
C        -1.84306603408291    0.81347203328114    0.40708450971474
C        -1.86321459105837   -0.67268579374418    0.58947070909482
C        -0.87854989413344    1.36162903877191    1.28404700669888
C         0.15687341189418   -1.83485516100620    0.90981592104171
C         1.38227392343362   -1.07075021335923    0.93610376700390
C         1.12594189032698    0.18834939029450    1.58395125546828
C        -0.89644606496213   -0.99974831179361    1.56607497102261
C        -0.26242525926243    0.24315015345445    1.95543969536876
20
 energy: -42.188628291215 gnorm: 0.001120452534 xtb: 6.3.3 (4ae9cef)
C         0.26197906057997   -0.24325527896942   -1.95501614355060
C         0.89500208337694    0.99963646115258   -1.56635830043280
C        -0.15726800722557    1.83438010640137   -0.91033035093837
C        -1.12665710194421   -0.18862456564047   -1.58438951575582
C        -1.38254754393968    1.07054990796397   -0.93592793337515
C        -1.40048560776672   -1.25123467379413   -0.65490411645395
C         0.87806120167068   -1.36245243614233   -1.28513407353937
C        -0.19134379079876   -2.01309205361195   -0.44925011577309
C         1.86208532067841    0.67236897957941   -0.58968982175483
C         1.84268540704334   -0.81387218121611   -0.40769748770574
C         0.19054163384672    2.01288837146099    0.44874711800513
C         1.39968756662210    1.25103695317229    0.65440578525113
C        -1.84348301752161    0.81367126922118    0.40719619054235
C        -1.86288958511328   -0.67256935644065    0.58919157538999
C        -0.87886071512124    1.36225180337516    1.28463403049625
C         0.15646488400383   -1.83457749919013    0.90983132800029
C         1.38174949735125   -1.07074964358061    0.93542527419438
C         1.12585933820667    0.18842645069408    1.58389113224960
C        -0.89580147131273   -0.99984012163658    1.56586018533059
C        -0.26277915263612    0.24305750720135    1.95451523982000
20
 energy: -42.188630102275 gnorm: 0.000393677269 xtb: 6.3.3 (4ae9cef)
C         0.26177778925660   -0.24322150375270   -1.95552860025522
C         0.89539967578316    0.99960314695864   -1.56656066618060
C        -0.15762879357582    1.83477508475608   -0.91051158021167
C        -1.12672312009586   -0.18846244768770   -1.58440212402416
C        -1.38291476632445    1.07062256354374   -0.93634396595103
C        -1.40060408945064   -1.25109489089845   -0.65504862781836
C         0.87791752943774   -1.36203260917922   -1.28468102682973
C        -0.19123023852888   -2.01229643295740   -0.44914014125028
C         1.86219148239036    0.67234406442225   -0.58985366035976
C         1.84265797539940   -0.81386854159360   -0.40762742346643
C         0.19043051399843    2.01209654740735    0.44864057287332
C         1.39980347144215    1.25089419487516    0.65454846962103
C        -1.84345801151451    0.81366892019994    0.40712766206520
C        -1.86299130614271   -0.67254423097580    0.58935402844217
C        -0.87871727653850    1.36183279394196    1.28418107047694
C         0.15682936076958   -1.83497521653132    0.91001157488585
C         1.38211450877738   -1.07082227866832    0.93584409126023
C         1.12592253086009    0.18826213189407    1.58390141922926
C        -0.89619951321242   -0.99980252379504    1.56606055445070
C        -0.26257772273110    0.24302122804035    1.95502837304254
20
 energy: -42.188630618998 gnorm: 0.000428776387 xtb: 6.3.3 (4ae9cef)
C         0.26174749381369   -0.24310733139217   -1.95558300984104
C         0.89542663910365    0.99961901397967   -1.56668480789770
C        -0.15782188638370    1.83514974376845   -0.91074305773786
C        -1.12673385891813   -0.18831252171523   -1.58440952638644
C        -1.38299587422969    1.07074622561446   -0.93645044519615
C        -1.40059765537918   -1.25096716487243   -0.65504429172912
C         0.87790215150017   -1.36192436964185   -1.28448495176708
C        -0.19106187440434   -2.01183521036303   -0.44897848138218
C         1.86206436803856    0.67225489224645   -0.58985755684223
C         1.84284264247608   -0.81401715978931   -0.40761371222825
C         0.19026207810035    2.01163926203334    0.44847901662918
C         1.39979744694517    1.25076739618370    0.65454333418462
C        -1.84364101507826    0.81381624474519    0.40711227175766
C        -1.86286145212407   -0.67245380883962    0.58935553474521
C        -0.87870413669433    1.36172660653608    1.28398597965465
C         0.15702225940219   -1.83535358455258    0.91024309316083
C         1.38219587558320   -1.07094747669098    0.93595048851795
C         1.12593434898357    0.18811197417962    1.58391049407554
C        -0.89622900115972   -0.99981946890863    1.56618575663913
C        -0.26254854957519    0.24290673747887    1.95508387164327
