50
 energy: -106.758308126382 gnorm: 0.317913819294 xtb: 6.3.3 (4ae9cef)
C        -0.09200000000000    0.03700000000000   -3.37800000000000
C         0.20400000000000    1.32300000000000   -2.91800000000000
C        -0.94100000000000    1.82900000000000   -2.29300000000000
C        -1.41800000000000   -0.24400000000000   -3.05800000000000
C        -1.95100000000000    0.86700000000000   -2.39800000000000
C        -1.46000000000000   -1.49600000000000   -2.43700000000000
C         0.69500000000000   -1.04000000000000   -2.95700000000000
C        -0.15000000000000   -1.97900000000000   -2.35600000000000
C         1.96400000000000   -0.78500000000000   -2.41600000000000
C         1.47300000000000    1.57800000000000   -2.37600000000000
C         2.40500000000000    0.53800000000000   -2.31200000000000
C         1.59900000000000    2.33800000000000   -1.20900000000000
C        -0.81600000000000    2.58300000000000   -1.11500000000000
C         0.44900000000000    2.83700000000000   -0.57500000000000
C        -1.70500000000000    2.38100000000000   -0.05500000000000
C        -2.84400000000000    0.66400000000000   -1.33400000000000
C        -2.72600000000000    1.42300000000000   -0.16500000000000
C        -2.35300000000000   -1.69900000000000   -1.37300000000000
C        -3.17300000000000   -0.64300000000000   -0.96600000000000
C        -1.93500000000000   -2.38500000000000   -0.22800000000000
C         0.27300000000000   -2.65800000000000   -1.20100000000000
C        -0.61600000000000   -2.86000000000000   -0.14100000000000
C         2.39000000000000   -1.46900000000000   -1.27200000000000
C         1.53800000000000   -2.40400000000000   -0.66200000000000
C         3.11700000000000    0.66600000000000   -1.12300000000000
C         2.63000000000000    1.78700000000000   -0.44300000000000
C         3.12100000000000   -0.57700000000000   -0.48200000000000
C         2.52200000000000    1.74100000000000    0.95600000000000
C         0.34100000000000    2.79100000000000    0.81900000000000
C        -0.99000000000000    2.50900000000000    1.14000000000000
C         1.38200000000000    2.24700000000000    1.58800000000000
C        -1.29100000000000    1.68100000000000    2.23400000000000
C        -3.01800000000000    0.59100000000000    0.92100000000000
C        -3.28100000000000   -0.68900000000000    0.42200000000000
C        -2.52700000000000   -1.77300000000000    0.88200000000000
C        -2.30000000000000    0.72000000000000    2.12000000000000
C        -1.80900000000000   -1.64300000000000    2.08100000000000
C        -1.86900000000000   -0.43500000000000    2.78000000000000
C         0.09900000000000   -2.73100000000000    1.05300000000000
C         1.43000000000000   -2.44900000000000    0.73200000000000
C        -0.50000000000000   -2.12600000000000    2.17100000000000
C         3.01300000000000   -0.62200000000000    0.91700000000000
C         2.90400000000000    0.57600000000000    1.62800000000000
C         2.17300000000000   -1.56000000000000    1.52500000000000
C         1.08300000000000    1.41400000000000    2.67100000000000
C        -0.25400000000000    1.13100000000000    2.99400000000000
C        -0.61000000000000   -0.18200000000000    3.31800000000000
C         0.23700000000000   -1.23300000000000    2.95400000000000
C         2.01800000000000    0.37500000000000    2.68300000000000
C         1.57400000000000   -0.95000000000000    2.63200000000000
50
 energy: -106.830205233674 gnorm: 0.136971564932 xtb: 6.3.3 (4ae9cef)
C        -0.07852178915349    0.03997450391186   -3.40271552620362
C         0.21656866335410    1.34225164020542   -2.95189074198916
C        -0.95110520959470    1.85447729113916   -2.31296955085954
C        -1.44088019528927   -0.24858343634919   -3.07386866452497
C        -1.98339464772710    0.87666569582354   -2.42093808589245
C        -1.48603038489283   -1.51702667920291   -2.46045846375565
C         0.71391173955957   -1.05136725252035   -2.99141390324982
C        -0.14919160244192   -2.00573746465974   -2.37681043462411
C         1.97970321619032   -0.79715437504825   -2.45164969412709
C         1.48232299578516    1.59650466132671   -2.41148359926495
C         2.41260510306025    0.53989963711393   -2.33940419147171
C         1.61086143939962    2.36823300929072   -1.21944877541821
C        -0.82349575736904    2.59362595012175   -1.13688909809988
C         0.46566591476525    2.85251935593439   -0.58663226652503
C        -1.72987612946100    2.38757847533378   -0.05655097124025
C        -2.87388250394193    0.67421946135842   -1.35992136716385
C        -2.75216643397597    1.44477187753490   -0.16624607720956
C        -2.37649465569941   -1.71952875964640   -1.39947778028160
C        -3.19214389726911   -0.64680939985868   -0.98653499532140
C        -1.95027633029066   -2.41538790409033   -0.23018332257596
C         0.27008683700974   -2.66993922291717   -1.22364186925384
C        -0.63625350068143   -2.87595149645202   -0.14328864242115
C         2.41281824729730   -1.49139973865745   -1.28344036684317
C         1.55928771198636   -2.41116754149006   -0.67393841170410
C         3.14423661157651    0.67156243810937   -1.11730657565378
C         2.66373273728569    1.80966190630750   -0.43762417586557
C         3.16104598052448   -0.58453159095581   -0.47727924261388
C         2.55598397233616    1.76400099068918    0.95731098338400
C         0.35565910608319    2.80583797606942    0.83385266593519
C        -1.00110459145375    2.51842602415835    1.16128996633509
C         1.39228870453545    2.27629256291967    1.60232182476850
C        -1.30424062707707    1.70536867823921    2.25373154131791
C        -3.05171246570798    0.59934390961390    0.94238332172707
C        -3.30281261801456   -0.69369901606224    0.43940866718529
C        -2.55442048651972   -1.79480132897309    0.90275876504799
C        -2.33584398167361    0.72817586743273    2.13820382520338
C        -1.83845186619896   -1.66550061524477    2.09858692230306
C        -1.89427660489961   -0.44011967128531    2.79217598181209
C         0.09256319484892   -2.74461386914033    1.07408483070180
C         1.44933158210411   -2.45724125782193    0.74665563933918
C        -0.50224998981068   -2.15439528489875    2.18984422179987
C         3.05329753817065   -0.62965696898220    0.91770909432797
C         2.93180639105331    0.58195869120126    1.62720675517808
C         2.19418463847196   -1.58329628965708    1.53847532131751
C         1.08646810168019    1.42985011969287    2.70842606647673
C        -0.24648678969868    1.14769355806820    3.03036044756174
C        -0.60037024536016   -0.18025368725942    3.34474706609827
C         0.25090644297570   -1.24650015719672    2.99019802141907
C         2.02144442445948    0.37511826115703    2.71137710723786
C         1.58390200968919   -0.96434953438308    2.66889775767665
50
 energy: -106.849341345739 gnorm: 0.030805919078 xtb: 6.3.3 (4ae9cef)
C        -0.06935026693837    0.04197637986872   -3.41664034278108
C         0.22566705495526    1.35290496364571   -2.97952310837696
C        -0.95854379181509    1.87000524840516   -2.33051950177252
C        -1.45510977125571   -0.25145122865707   -3.08209345076794
C        -2.00689240163379    0.88028564780814   -2.44060624835844
C        -1.50629002892217   -1.52905835558916   -2.48041476986566
C         0.72623338638630   -1.05635988871065   -3.01935621029321
C        -0.14987038680644   -2.02235262693489   -2.39486974381694
C         1.99299866701435   -0.80207384104343   -2.47895424412535
C         1.49239209371469    1.60722088544205   -2.43887414375799
C         2.41576647645715    0.54075461398539   -2.35601730060895
C         1.62269253317250    2.38789083830229   -1.22879723052194
C        -0.82631214822497    2.58849224136411   -1.15302746501499
C         0.48051388091585    2.85085568761021   -0.59529961123193
C        -1.74531707227360    2.37946612670537   -0.05787906009176
C        -2.89782332374675    0.67768179024014   -1.37902582033144
C        -2.77363983800288    1.45709098288281   -0.16747848975627
C        -2.39718829973175   -1.73171966836910   -1.41885686516817
C        -3.20254325040403   -0.64890880216587   -0.99961489891845
C        -1.96497376792740   -2.43522519732904   -0.23191355020350
C         0.26530484525911   -2.66572639841954   -1.23987704876745
C        -0.65367133012779   -2.87471433667013   -0.14472091974599
C         2.43139857363326   -1.50424495297697   -1.29329925255539
C         1.57214799945986   -2.40348050468920   -0.68232095123566
C         3.15997453058493    0.67477380341297   -1.11260178663050
C         2.69137566170865    1.82330296970031   -0.43548490895229
C         3.19193010111080   -0.58612615031629   -0.47539898843557
C         2.58348394850039    1.77777333871354    0.96017365652768
C         0.36907549615397    2.80379497870188    0.84453986768423
C        -1.00649504146296    2.51242736217890    1.17664934542560
C         1.40270552329877    2.29521054793194    1.61476685187120
C        -1.31442322879801    1.71988971380641    2.27088383608236
C        -3.07845307519693    0.60148857806350    0.95757096993402
C        -3.31482415416420   -0.69629018533414    0.45075166950009
C        -2.57791672661202   -1.80791592314734    0.91768388084488
C        -2.36223931221953    0.73049466751564    2.15420817394524
C        -1.86162100234594   -1.67882112022606    2.11431684434188
C        -1.90980539275834   -0.44323104194281    2.79815942053901
C         0.08516224711186   -2.74160850784848    1.08969829190292
C         1.46075708295341   -2.45038349901262    0.75760110440517
C        -0.50569335525167   -2.17235827806301    2.20644723888020
C         3.08403144945977   -0.63153492659051    0.92030260927062
C         2.94814480844468    0.58548944093230    1.62532740588148
C         2.21132918329138   -1.59694973343735    1.55038365882962
C         1.09199227810086    1.43847709466877    2.73739649924399
C        -0.24152868840377    1.15613023143481    3.05938007992951
C        -0.59347282684628   -0.17899844207506    3.36001668498408
C         0.25905842416819   -1.25328010552109    3.01933150590467
C         2.02223951122634    0.37489930036846    2.72829384122237
C         1.59262272478804   -0.97096371861976    2.69758247493553
50
 energy: -106.850983396160 gnorm: 0.008600590203 xtb: 6.3.3 (4ae9cef)
C        -0.06721614365368    0.04247730963664   -3.42074171402889
C         0.22856515329577    1.35581597435381   -2.99158767277413
C        -0.96152745141860    1.87409793214944   -2.33947649999543
C        -1.45874292911595   -0.25216109145033   -3.08478514683937
C        -2.01556799278891    0.88065737974062   -2.44980775232951
C        -1.51418322353318   -1.53253993552355   -2.48971550696247
C         0.72993019862794   -1.05735501226855   -3.03151971034920
C        -0.15102039591171   -2.02700896017970   -2.40400568878404
C         1.99943383182271   -0.80256919680478   -2.48981998255115
C         1.49805258922381    1.61062374556032   -2.44983906466352
C         2.41709381186539    0.54108218416056   -2.36052308698320
C         1.62954366867463    2.39407723624639   -1.23366531057097
C        -0.82568179610185    2.58039143696492   -1.15746339824990
C         0.48590529093326    2.84366325940722   -0.59773307728492
C        -1.74807677536096    2.37056356144192   -0.05834175007249
C        -2.90836489104110    0.67758886018406   -1.38598494953528
C        -2.78370557403107    1.45958278430747   -0.16816843322766
C        -2.40695680374079   -1.73563869467672   -1.42589229104825
C        -3.20580307923781   -0.64957668470624   -1.00292069934645
C        -1.97319127201251   -2.44150540712755   -0.23271962305250
C         0.26263231225901   -2.65788478206300   -1.24412035420326
C        -0.65975449901693   -2.86769631100921   -0.14499819794006
C         2.44005871309177   -1.50697930487758   -1.29823825486753
C         1.57422352981957   -2.39468700944345   -0.68441983272365
C         3.16442590310913    0.67569414156455   -1.11181852122490
C         2.70328627560374    1.82773886838696   -0.43597888128782
C         3.20464129981527   -0.58545761734807   -0.47590867139384
C         2.59510709199829    1.78214526680615    0.96266284485264
C         0.37410455454526    2.79652469062329    0.84731680689037
C        -1.00654963631639    2.50410956488646    1.18067958129491
C         1.40874398210451    2.30101559322608    1.62096545627860
C        -1.31883187289141    1.72344442502261    2.27954082722731
C        -3.09002640003082    0.60096415808317    0.96277373523530
C        -3.31846415504275   -0.69707258095075    0.45346525647513
C        -2.58866544770400   -1.81221946862496    0.92284552516615
C        -2.37230923874987    0.73025171647748    2.16201282854792
C        -1.87091723917241   -1.68294390536213    2.12207852635398
C        -1.91394981886782   -0.44408779306116    2.80028978319705
C         0.08177340992286   -2.73411849433820    1.09401756931024
C         1.46244896506761   -2.44181695238352    0.76066835858545
C        -0.50829100424784   -2.17766354986948    2.21499018657160
C         3.09646681114834   -0.63105153429097    0.92274882843027
C         2.95269664737423    0.58645899784017    1.62528070053929
C         2.21922003604487   -1.60006987442561    1.55644573974024
C         1.09585948612248    1.44107399428452    2.74914648446312
C        -0.24048498521702    1.15808659166832    3.07179769603519
C        -0.59207185564559   -0.17877950272988    3.36442695724691
C         0.26088338298030   -1.25508576908258    3.03184737249400
C         2.02301054169707    0.37496833301806    2.73293968890800
C         1.59724699370318   -0.97212857344324    2.70925331844676
50
 energy: -106.851112088691 gnorm: 0.004531440778 xtb: 6.3.3 (4ae9cef)
C        -0.06693723799253    0.04252743662307   -3.41979907042376
C         0.22903097082796    1.35640814366488   -2.99443556688663
C        -0.96232979438783    1.87495773212398   -2.34208861470986
C        -1.45855223353639   -0.25214132992751   -3.08381598185774
C        -2.01740131823939    0.88072804891235   -2.45207438767472
C        -1.51585944054543   -1.53326664933201   -2.49200551347683
C         0.73056596028240   -1.05758415429288   -3.03438788447016
C        -0.15142961330915   -2.02804912702150   -2.40666356768852
C         2.00108602997315   -0.80259559531190   -2.49220565703368
C         1.49954591527820    1.61141046237402   -2.45225582169998
C         2.41623892322675    0.54090425453676   -2.36007868434411
C         1.63161300018643    2.39555920989310   -1.23509373140685
C        -0.82492620814121    2.57661126003364   -1.15763281738891
C         0.48678457284663    2.83989211383190   -0.59785199303963
C        -1.74740851544549    2.36676538630317   -0.05841657707027
C        -2.91090417191798    0.67748473180682   -1.38739536152338
C        -2.78654745235204    1.45999003915659   -0.16837842808961
C        -2.40935220903539   -1.73652091219787   -1.42732141304044
C        -3.20486438739342   -0.64938822274200   -1.00290095462417
C        -1.97564447334088   -2.44300927670248   -0.23294709494586
C         0.26182172090463   -2.65412133950368   -1.24416991877274
C        -0.66065986703776   -2.86396285714514   -0.14495430931914
C         2.44250915853207   -1.50744557476978   -1.29966871340497
C         1.57353391938213   -2.39087876757349   -0.68439112407103
C         3.16363219228096    0.67553038578614   -1.11125965401035
C         2.70603619088036    1.82873332998011   -0.43631092988359
C         3.20756023521951   -0.58526564751262   -0.47624065186948
C         2.59775286749102    1.78308934078018    0.96346755576288
C         0.37498888703766    2.79275962130080    0.84732557772316
C        -1.00581217148905    2.50034123961117    1.18071894826639
C         1.41055141778570    2.30236438058416    1.62275192362832
C        -1.32004006203981    1.72415163763633    2.28204610423408
C        -3.09277894030638    0.60079393319937    0.96377314123316
C        -3.31751959149520   -0.69688026746859    0.45357992678609
C        -2.59124456233810   -1.81319611944578    0.92384196377344
C        -2.37448340558689    0.73017919847991    2.16398809094083
C        -1.87293920919728   -1.68382165938928    2.12404907271169
C        -1.91364788014536   -0.44401101151598    2.79937478188668
C         0.08093838617595   -2.73037928850212    1.09418799299136
C         1.46175025835694   -2.43801806749205    0.76080287574884
C        -0.50912319176626   -2.17887115788437    2.21747860968509
C         3.09928436081472   -0.63091553570795    0.92354163684594
C         2.95200882923415    0.58632049432374    1.62459554496423
C         2.22143745488736   -1.60064856886758    1.55819917690938
C         1.09697297726834    1.44168650525277    2.75178417704067
C        -0.24045428528049    1.15846865260526    3.07469712412594
C        -0.59166702061771   -0.17868688360087    3.36353981528081
C         0.26108006169712   -1.25551264589742    3.03476489855867
C         2.02228888121002    0.37482667638383    2.73237018884183
C         1.59851407115727   -0.97231355537918    2.71186529478695
50
 energy: -106.851148094025 gnorm: 0.001367191136 xtb: 6.3.3 (4ae9cef)
C        -0.06685301982914    0.04251847027842   -3.41776931308336
C         0.22903654560481    1.35676459607440   -2.99520719887343
C        -0.96270258389812    1.87555669603784   -2.34311975635221
C        -1.45772026144492   -0.25200528149987   -3.08196010511373
C        -2.01787350861004    0.88096325811540   -2.45271125195608
C        -1.51620738546720   -1.53366106486907   -2.49265719305509
C         0.73070504149070   -1.05786563443669   -3.03516087477877
C        -0.15154012122253   -2.02872549811261   -2.40771489963740
C         2.00161725556026   -0.80279182936963   -2.49278660623914
C         1.49994917519687    1.61184236943181   -2.45284661967642
C         2.41476672022093    0.54058621392292   -2.35871315595343
C         1.63237404888622    2.39640312753073   -1.23565377886957
C        -0.82440159671846    2.57463185911385   -1.15718752504402
C         0.48678512651386    2.83779512827443   -0.59762790510856
C        -1.74651055965551    2.36487613420791   -0.05841642907722
C        -2.91165051632366    0.67765002113565   -1.38769452571040
C        -2.78771506146161    1.46041291000126   -0.16845888413434
C        -2.40998562508568   -1.73697067725081   -1.42763680583353
C        -3.20295289857152   -0.64900127792843   -1.00235789429848
C        -1.97655569082830   -2.44386213976037   -0.23304169579997
C         0.26151811974508   -2.65211922686523   -1.24365344599143
C        -0.66059243893259   -2.86187684636729   -0.14488289900844
C         2.44352990844240   -1.50788654552741   -1.30023785314148
C         1.57270535497156   -2.38896347981689   -0.68409045657561
C         3.16176772366478    0.67513895096464   -1.11054692762356
C         2.70670865688981    1.82920421087817   -0.43646041461353
C         3.20837175587038   -0.58542638815311   -0.47640067103670
C         2.59838968579916    1.78353298891564    0.96376414076925
C         0.37504228578579    2.79068208478200    0.84696917423234
C        -1.00521245525336    2.49840131927663    1.18022157163076
C         1.41120546037584    2.30314787796229    1.62346242424035
C        -1.32056390519100    1.72468979431931    2.28303266823960
C        -3.09357406482804    0.60095721911295    0.96397228079053
C        -3.31554829568881   -0.69647046200967    0.45334766498051
C        -2.59190448626480   -1.81366927654340    0.92403305410873
C        -2.37504777804425    0.73037926421880    2.16456492189447
C        -1.87337995607619   -1.68424761424430    2.12461941449293
C        -1.91254853034523   -0.44375836657093    2.79767969080739
C         0.08070686559119   -2.72835177478043    1.09376050914681
C         1.46096245934560   -2.43608086907397    0.76050883581616
C        -0.50939927662381   -2.17960259672030    2.21845080338743
C         3.10005471432155   -0.63109569550861    0.92382223008332
C         2.95027830624496    0.58596858189106    1.62358490310064
C         2.22236229571144   -1.60113256419033    1.55888108262256
C         1.09729398566256    1.44207327092862    2.75245789754287
C        -0.24055930308288    1.15877296009005    3.07547109469009
C        -0.59126997309451   -0.17857625131096    3.36154248136365
C         0.26110683671365   -1.25585142445772    3.03553492750948
C         2.02107170801275    0.37459870644463    2.73079619644284
C         1.59895925592000   -0.97255522854137    2.71251711869320
50
 energy: -106.851151931877 gnorm: 0.000508634809 xtb: 6.3.3 (4ae9cef)
C        -0.06683474755580    0.04249727753177   -3.41617239419934
C         0.22887338137327    1.35694342754146   -2.99482746574168
C        -0.96276149676149    1.87593000069730   -2.34304210462515
C        -1.45703127509133   -0.25188448561141   -3.08052108587097
C        -2.01764666597126    0.88123213625530   -2.45242368761325
C        -1.51589218314037   -1.53382141702781   -2.49237376525423
C         0.73062865303349   -1.05811000103044   -3.03477875033363
C        -0.15144999868119   -2.02909276831324   -2.40763987375211
C         2.00147766068780   -0.80304884504061   -2.49242941490755
C         1.49972204504859    1.61200418886960   -2.45248217461503
C         2.41365185443127    0.54033414272648   -2.35760302404375
C         1.63223086174620    2.39675398611500   -1.23560954051167
C        -0.82429544530447    2.57454856380915   -1.15682277378694
C         0.48648820996441    2.83762246005545   -0.59743407716563
C        -1.74611620934045    2.36486095722583   -0.05838942714824
C        -2.91138073350746    0.67793109004526   -1.38745384496764
C        -2.78771573824520    1.46080692838899   -0.16844504564706
C        -2.40962857609244   -1.73712058844332   -1.42740579010090
C        -3.20146258978816   -0.64869348618078   -1.00188154797933
C        -1.97640293911218   -2.44422149031821   -0.23304432022949
C         0.26158250614633   -2.65201243690198   -1.24328048059643
C        -0.66023796125459   -2.86170212088460   -0.14484841547688
C         2.44354438510185   -1.50827361820030   -1.30020377377436
C         1.57236667225869   -2.38893312804868   -0.68389001999578
C         3.16029008464450    0.67482141238803   -1.11003593585203
C         2.70626906618441    1.82933286311061   -0.43645171422687
C         3.20802601280931   -0.58572497825021   -0.47640064991613
C         2.59795729256800    1.78366823697431    0.96370591233854
C         0.37477618749640    2.79052567880181    0.84671999910401
C        -1.00505034655663    2.49833985117819    1.17986781833442
C         1.41106685127202    2.30351117476001    1.62342321094406
C        -1.32060469624882    1.72505668465219    2.28296115875016
C        -3.09326497999053    0.60124740291025    0.96379877283294
C        -3.31401207910527   -0.69614953866605    0.45312610367683
C        -2.59150918497143   -1.81381081719213    0.92384764437521
C        -2.37477139882613    0.73065665611390    2.16432933479190
C        -1.87301673825994   -1.68439191821466    2.12437692309360
C        -1.91163637174386   -0.44355605122052    2.79636712312351
C         0.08082984289458   -2.72822184286335    1.09340854182656
C         1.46065456149389   -2.43602949156843    0.76026197022640
C        -0.50929135313992   -2.17995912657377    2.21836334163589
C         3.09971349067702   -0.63138480282128    0.92375556831513
C         2.94889156577336    0.58569618556101    1.62283585511829
C         2.22238417020537   -1.60151169433423    1.55882556103851
C         1.09712561985281    1.44227135161136    2.75208505592370
C        -0.24066181945834    1.15898209857153    3.07508088176700
C        -0.59099803322194   -0.17849919917786    3.35995951671422
C         0.26109615596818   -1.25607029077450    3.03512960623694
C         2.02014312422748    0.37443239581794    2.72952837422571
C         1.59888330550997   -0.97278301405437    2.71213282393856
50
 energy: -106.851152375010 gnorm: 0.000126223361 xtb: 6.3.3 (4ae9cef)
C        -0.06683750289421    0.04250100969948   -3.41641500254266
C         0.22887566493970    1.35692790807759   -2.99475519811893
C        -0.96272328996719    1.87588187627410   -2.34290887911506
C        -1.45713412473562   -0.25190851238008   -3.08073702839915
C        -2.01760907185486    0.88121308725518   -2.45235726177886
C        -1.51585866676368   -1.53380563841326   -2.49230732473685
C         0.73062755122956   -1.05809061014493   -3.03470467518100
C        -0.15142414300360   -2.02903727601289   -2.40750564698638
C         2.00142340728542   -0.80303380740181   -2.49238089509860
C         1.49967281883540    1.61198506434012   -2.45243048197891
C         2.41382033402789    0.54038254061666   -2.35777108278763
C         1.63212482452950    2.39668137176702   -1.23553354813860
C        -0.82439493130470    2.57489641665975   -1.15692382249106
C         0.48650584374096    2.83799914671455   -0.59748371588379
C        -1.74629836132331    2.36518798124757   -0.05839269601176
C        -2.91130900002981    0.67792045927831   -1.38743380243904
C        -2.78757301831317    1.46077950988500   -0.16843827048054
C        -2.40956012336176   -1.73709981234638   -1.42738260178102
C        -3.20168584608386   -0.64874756905870   -1.00195276600352
C        -1.97627842258073   -2.44414565556312   -0.23302892483256
C         0.26163292795543   -2.65236752200609   -1.24339392229023
C        -0.66027131473464   -2.86207612959946   -0.14486137571878
C         2.44341813150488   -1.50824039985912   -1.30013421313197
C         1.57253336849582   -2.38926389216667   -0.68395646158127
C         3.16051223244170    0.67487376643113   -1.11011468496719
C         2.70620175106101    1.82930140119858   -0.43642719957726
C         3.20795177883487   -0.58571861057474   -0.47638142269798
C         2.59789993063457    1.78363087278723    0.96367144136084
C         0.37478649459234    2.79089238086978    0.84679977032047
C        -1.00516457448950    2.49868515114312    1.17997608833133
C         1.41098086779459    2.30343341632066    1.62333351952391
C        -1.32054426693973    1.72502868000221    2.28283726368695
C        -3.09318935520472    0.60124658606230    0.96378466155801
C        -3.31424459501244   -0.69619792652447    0.45316181769151
C        -2.59143914545088   -1.81377330732100    0.92383762521589
C        -2.37472852195720    0.73066171328155    2.16426834510318
C        -1.87297953467391   -1.68435560440262    2.12431975595131
C        -1.91177560023636   -0.44357419321182    2.79656629237199
C         0.08085980679885   -2.72857990496965    1.09350747616647
C         1.46081003125078   -2.43637221670700    0.76032739415633
C        -0.50925382027051   -2.17989245875975    2.21824076630628
C         3.09964821278485   -0.63138886449269    0.92371821158617
C         2.94910236665773    0.58572710874748    1.62294869591960
C         2.22227331318458   -1.60148956321860    1.55873654553918
C         1.09708810817680    1.44223648317075    2.75202220999762
C        -0.24064647435214    1.15897233750112    3.07500712040927
C        -0.59104146928607   -0.17850311708759    3.36020055228718
C         0.26109882420338   -1.25604646399061    3.03505780209527
C         2.02028255963740    0.37444600769111    2.72971738878591
C         1.59883402422659   -0.97278322080928    2.71207216038593
