70
 energy: -149.857397025546 gnorm: 0.315088107945 xtb: 6.3.3 (4ae9cef)
C         0.31500000000000   -0.10900000000000   -4.03500000000000
C         0.35200000000000    1.27300000000000   -3.82700000000000
C        -0.95000000000000    1.70300000000000   -3.54800000000000
C        -1.00900000000000   -0.53400000000000   -3.88400000000000
C        -1.79100000000000    0.58600000000000   -3.58300000000000
C        -1.28600000000000   -1.76900000000000   -3.27500000000000
C        -0.23700000000000   -2.57100000000000   -2.81400000000000
C         1.36900000000000   -0.91700000000000   -3.57700000000000
C         1.09300000000000   -2.14500000000000   -2.96600000000000
C         2.45300000000000   -0.33800000000000   -2.90900000000000
C         1.44200000000000    1.85500000000000   -3.16000000000000
C         2.48900000000000    1.05100000000000   -2.70000000000000
C         1.22500000000000    2.86200000000000   -2.21300000000000
C        -1.16800000000000    2.71700000000000   -2.60100000000000
C        -0.08200000000000    3.29400000000000   -1.93400000000000
C        -2.22400000000000    2.60600000000000   -1.69100000000000
C        -2.85400000000000    0.47700000000000   -2.67100000000000
C        -3.06800000000000    1.48400000000000   -1.72600000000000
C        -2.34200000000000   -1.87600000000000   -2.36400000000000
C        -3.12700000000000   -0.75200000000000   -2.06200000000000
C        -0.64300000000000   -3.17200000000000   -1.61900000000000
C        -1.94400000000000   -2.74200000000000   -1.34000000000000
C         0.26200000000000   -3.32700000000000   -0.55600000000000
C         2.00400000000000   -2.32200000000000   -1.92000000000000
C         2.84400000000000   -1.20600000000000   -1.88500000000000
C         1.59200000000000   -2.90000000000000   -0.70900000000000
C         3.24800000000000   -0.70000000000000   -0.63900000000000
C         2.91700000000000    1.55900000000000   -1.46900000000000
C         2.13600000000000    2.67800000000000   -1.16800000000000
C         3.28500000000000    0.68900000000000   -0.43000000000000
C         1.74500000000000    2.89500000000000    0.16200000000000
C        -0.46600000000000    3.53700000000000   -0.61100000000000
C        -1.79000000000000    3.11200000000000   -0.46000000000000
C         0.43700000000000    3.32600000000000    0.44200000000000
C        -2.17000000000000    2.48900000000000    0.73900000000000
C        -3.47000000000000    0.87800000000000   -0.53100000000000
C        -3.50700000000000   -0.50300000000000   -0.73900000000000
C        -3.01400000000000    1.36700000000000    0.70400000000000
C        -2.30100000000000   -2.48100000000000   -0.00800000000000
C        -3.08600000000000   -1.35600000000000    0.29400000000000
C        -0.26000000000000   -3.53400000000000    0.72900000000000
C        -1.56000000000000   -3.10500000000000    1.00800000000000
C         0.52700000000000   -3.29300000000000    1.86100000000000
C         2.38700000000000   -2.68500000000000    0.42800000000000
C         3.22800000000000   -1.56800000000000    0.46400000000000
C         1.85600000000000   -2.86700000000000    1.71000000000000
C         3.21600000000000   -1.06000000000000    1.76700000000000
C         2.36700000000000   -1.86100000000000    2.53700000000000
C         3.30000000000000    1.19600000000000    0.88000000000000
C         2.51900000000000    2.31500000000000    1.17900000000000
C         3.25300000000000    0.32800000000000    1.97600000000000
C         1.98800000000000    2.14000000000000    2.46100000000000
C         2.44000000000000    0.91100000000000    2.95400000000000
C        -0.08300000000000    3.17400000000000    1.73700000000000
C        -1.40600000000000    2.74900000000000    1.88700000000000
C         0.68100000000000    2.57100000000000    2.74200000000000
C        -1.46000000000000    1.88400000000000    2.98500000000000
C        -0.17000000000000    1.77200000000000    3.51200000000000
C        -3.08700000000000    0.51600000000000    1.81600000000000
C        -3.12300000000000   -0.86600000000000    1.61000000000000
C        -2.30500000000000    0.76200000000000    2.95000000000000
C        -1.57800000000000   -2.59900000000000    2.31200000000000
C        -0.28800000000000   -2.71300000000000    2.83800000000000
C        -2.36300000000000   -1.47400000000000    2.61400000000000
C        -1.85600000000000   -0.46800000000000    3.44100000000000
C         1.54800000000000   -1.27600000000000    3.51500000000000
C         1.58400000000000    0.10700000000000    3.72300000000000
C         0.28300000000000    0.53600000000000    4.00200000000000
C         0.22400000000000   -1.70100000000000    3.66600000000000
C        -0.55800000000000   -0.58100000000000    3.96600000000000
70
 energy: -149.937043854358 gnorm: 0.139664058343 xtb: 6.3.3 (4ae9cef)
C         0.32471636170352   -0.11543054818873   -4.06674723689763
C         0.36196486305155    1.28801989674849   -3.85566860614347
C        -0.95968658534840    1.72437863573814   -3.57245487667958
C        -1.01953712969529   -0.54687665441781   -3.91362159505599
C        -1.81339946798171    0.59025916076166   -3.60819869017585
C        -1.29334838745450   -1.77102367614821   -3.30628604305772
C        -0.22850646427698   -2.58105912234687   -2.83363675764175
C         1.36961656296577   -0.91641634432324   -3.60912171879224
C         1.08820925198205   -2.15901414163420   -2.98389234096756
C         2.46577913148664   -0.32864990843769   -2.92598499062192
C         1.44279880952777    1.86415939123942   -3.19093557031121
C         2.50167350737329    1.04640529539556   -2.71911277218136
C         1.22091493556917    2.88117734282220   -2.22613369171494
C        -1.17493680188397    2.72850789553855   -2.63024457979414
C        -0.07315722510085    3.30868584574887   -1.94947252864950
C        -2.24254164250119    2.61215972986129   -1.70307171953469
C        -2.86601942646696    0.48170025360122   -2.70093212858392
C        -3.07841523869334    1.50121299734647   -1.73791715599380
C        -2.36080692922451   -1.87727087258365   -2.37732217460922
C        -3.13824574342379   -0.76399029581256   -2.07829046792427
C        -0.63857290190902   -3.18704212794711   -1.61889084938384
C        -1.95580878542194   -2.75202534434705   -1.33651133487434
C         0.27375934016753   -3.39068585018858   -0.56830110290101
C         2.00918610327318   -2.33709067211800   -1.91996185508925
C         2.85996667681888   -1.20675249669067   -1.88432886133495
C         1.61722120934686   -2.95946078025142   -0.72198272577931
C         3.31255954910979   -0.70704008406125   -0.65052139203981
C         2.93290484627142    1.55858890711332   -1.46850187972098
C         2.14181607290666    2.69200450602279   -1.16402222645090
C         3.34979013250536    0.69590684306727   -0.43956375849732
C         1.77313378945209    2.95442756345218    0.16667438463213
C        -0.46103275725397    3.55115807110988   -0.60665658107174
C        -1.80125826294115    3.12100828770301   -0.45408152771245
C         0.45218869341170    3.38997072835414    0.44955905871608
C        -2.21702682446741    2.53312542421105    0.75316896989659
C        -3.48216655113679    0.88650759563833   -0.52478858571633
C        -3.51935830195650   -0.51228807680592   -0.73513282089656
C        -3.06990182136966    1.39960253093994    0.71767911334531
C        -2.35035419494433   -2.52458650760982   -0.00665163651753
C        -3.14354326202655   -1.38820548644637    0.29849603879274
C        -0.25635252738843   -3.54863648307594    0.72332450963120
C        -1.57313798408463   -3.11405803817558    1.00571476288015
C         0.54031771357567   -3.30814348264264    1.87269257332473
C         2.39141257346625   -2.69897927214381    0.42220597792557
C         3.24265979938449   -1.56824797395375    0.45834588134559
C         1.85652633906683   -2.88598377101853    1.72300328842535
C         3.23409529634480   -1.05562461950344    1.78087262431334
C         2.37778831071750   -1.87020629371792    2.56593375979435
C         3.31507321991385    1.19661264657504    0.87407807189301
C         2.52402731949534    2.32990738287625    1.17769156966480
C         3.27058789709947    0.31899933029571    1.98769804232389
C         1.98926647221091    2.15419649409167    2.47970244695728
C         2.45100288381780    0.91054080777121    2.98401989419940
C        -0.07869517297045    3.18912557308916    1.73565687833808
C        -1.41847228594823    2.75891590470977    1.88768842501665
C         0.69517035013559    2.58106878110570    2.75750522700235
C        -1.47387275638055    1.88498805943877    3.00377770609749
C        -0.16689725100269    1.77418710374708    3.54423213963728
C        -3.10001739184360    0.52496345004514    1.81690625535053
C        -3.13666925398375   -0.87438310509669    1.60740453980681
C        -2.31024061763555    0.77418233116286    2.96903510257786
C        -1.59212857802728   -2.60489103465670    2.32959916265375
C        -0.28529533090446   -2.72478290863801    2.86823555941527
C        -2.36943315073035   -1.49098621801436    2.62856420300422
C        -1.85792240575707   -0.47256685980501    3.47316018542668
C         1.56673804909027   -1.29085965583923    3.53938650243916
C         1.60345662763816    0.11314111353698    3.75039120382402
C         0.28231680101807    0.54892280010932    4.03365019606226
C         0.22249445863938   -1.72228392152023    3.69248974372666
C        -0.57137453640175   -0.58517605280744    3.99739878487652
70
 energy: -149.963930186034 gnorm: 0.031791353924 xtb: 6.3.3 (4ae9cef)
C         0.33125163292853   -0.11953011856012   -4.09534328790992
C         0.36868048851597    1.30006612588742   -3.88200244924491
C        -0.96774291580436    1.74120565490569   -3.59564103597670
C        -1.02822913095793   -0.55582638896053   -3.94068215954856
C        -1.83103753244080    0.59418825080759   -3.63190010544012
C        -1.29898445363884   -1.77152924939104   -3.33182255338541
C        -0.22305246682704   -2.58615684334178   -2.84652971628345
C         1.36913955654121   -0.91521426675305   -3.63519513507154
C         1.08426445066465   -2.16678719955668   -2.99541436348713
C         2.47256785690076   -0.32210296188060   -2.93697946048197
C         1.44248385677054    1.87096934447404   -3.21638013661027
C         2.50842220941046    1.04308301868757   -2.73170827958611
C         1.21743246908719    2.89245042881472   -2.23510959028723
C        -1.18030218910277    2.73679660436190   -2.65454466088336
C        -0.06757932649449    3.31675223422996   -1.95996675103522
C        -2.25378830404475    2.61501450685577   -1.71149626965005
C        -2.87464924165643    0.48554207279297   -2.72568480747430
C        -3.08390316872614    1.51189473927982   -1.74629176744927
C        -2.37210457084990   -1.87692431945292   -2.38621643737026
C        -3.14417288839387   -0.77113037133920   -2.08928777059376
C        -0.63713894236228   -3.19644014689384   -1.61770725147173
C        -1.96178442527729   -2.75921666809392   -1.33383093706493
C         0.28171527099200   -3.44858286217324   -0.57904637508903
C         2.01369129958989   -2.34568213578569   -1.91911327839837
C         2.86943524062227   -1.20868526595381   -1.88313691914192
C         1.64235486775463   -3.01190975704116   -0.73393034747091
C         3.37027494797954   -0.71601975878541   -0.66125591691825
C         2.94235831818317    1.55957932928557   -1.46710940536493
C         2.14663248277907    2.69960532313462   -1.16108327209307
C         3.40776268842853    0.70484453574734   -0.44770984042634
C         1.80087231989787    3.00673898783793    0.17028331143255
C        -0.45926344696786    3.55971991113695   -0.60282227421570
C        -1.80684039892335    3.12719093745421   -0.44960325112783
C         0.46330859672716    3.44811975815537    0.45684406095164
C        -2.25759752767257    2.57475000700172    0.76611882830063
C        -3.49003063191002    0.89030694651171   -0.52029991813892
C        -3.52719351698745   -0.51680511226530   -0.73167863520992
C        -3.12157559977905    1.42666649450770    0.72993299364440
C        -2.39301095383004   -2.56580111810162   -0.00604415512193
C        -3.19646511534682   -1.41484084593305    0.30304342917938
C        -0.25564764432047   -3.55748271738100    0.71921048653095
C        -1.58023017002832   -3.12031324749833    1.00309354528873
C         0.54887776948038   -3.31659079737700    1.88080265334522
C         2.39520972682603   -2.70666345244030    0.41778503082372
C         3.25101894805325   -1.56966505511711    0.45386945058018
C         1.85613883988032   -2.89712340206878    1.73211361716488
C         3.24445350075503   -1.05245803330567    1.79051599727123
C         2.38563394859112   -1.87704295060343    2.59002529873004
C         3.32383232784001    1.19851626579815    0.86979614986850
C         2.52812342472459    2.33842515468671    1.17575745952942
C         3.28053252969450    0.31273409278809    1.99574558087145
C         1.98931585668743    2.16210318910851    2.49211903380489
C         2.45899606660245    0.90934918282929    3.00874052299875
C        -0.07766261961153    3.19854852795232    1.73415447718546
C        -1.42515841596920    2.76599130787861    1.88725244625831
C         0.70427979422711    2.58614466413047    2.76757257559581
C        -1.48190996285396    1.88444308685551    3.01595066216076
C        -0.16395182289692    1.77484363983197    3.57045678059902
C        -3.10861066192564    0.52927161663987    1.81655305195946
C        -3.14557587265768   -0.87798015747860    1.60519123483935
C        -2.31214302215321    0.78148754099570    2.98127398310568
C        -1.60022377913336   -2.60748509607692    2.34130122659680
C        -0.28263669224125   -2.73331811025481    2.89321685746081
C        -2.37215353956978   -1.50151813332944    2.63819393445124
C        -1.85825878419489   -0.47638546148625    3.49932797703170
C         1.58158491075635   -1.30278934391552    3.56251525592852
C         1.61889368202872    0.11695286291149    3.77578751999798
C         0.28260090495558    0.55790615582764    4.06214205605516
C         0.22213470815781   -1.73908966871814    3.71711529546965
C        -0.58066575748389   -0.58911148279064    4.02576573001103
70
 energy: -149.966768633038 gnorm: 0.011588042080 xtb: 6.3.3 (4ae9cef)
C         0.33201681956431   -0.11956117374954   -4.11246441384942
C         0.36951983830822    1.30517884735188   -3.89842212254597
C        -0.97160479849446    1.74783869082026   -3.61105392066145
C        -1.03229910992544   -0.55742637195677   -3.95734714786835
C        -1.83795965643920    0.59669009053716   -3.64747414098524
C        -1.30124294607965   -1.77191862258695   -3.34173428190224
C        -0.22288764437970   -2.58766068078395   -2.85021002976021
C         1.36911797120758   -0.91486619756182   -3.64532940361812
C         1.08423806323440   -2.16819766087685   -2.99889385663273
C         2.47405788939381   -0.32148463811309   -2.94043427683970
C         1.44252265585546    1.87377265350875   -3.22633183458796
C         2.50996652513007    1.04352640864215   -2.73531292163662
C         1.21751653963246    2.89497883559643   -2.23821309886805
C        -1.18244070823387    2.74021404355274   -2.66392225715693
C        -0.06736983397220    3.31912292208520   -1.96291719963024
C        -2.25595642748948    2.61665091653891   -1.71412917818683
C        -2.87818327741152    0.48703063476016   -2.73520721782905
C        -3.08599815608236    1.51371015607862   -1.74900896553612
C        -2.37432168563850   -1.87759961247916   -2.38924582922609
C        -3.14625830712052   -0.77186173811047   -2.09236725488015
C        -0.63787864100463   -3.20063418138991   -1.61706810303541
C        -1.96340708733539   -2.76315947457876   -1.33304161813129
C         0.28427584466726   -3.47427718073123   -0.58356241175881
C         2.01681153915847   -2.34865703972701   -1.91888139361748
C         2.87314067249832   -1.21084036028989   -1.88286719191587
C         1.65425722634103   -3.03459952446056   -0.73928760182129
C         3.39552967050843   -0.72093622048668   -0.66610869860578
C         2.94612288193986    1.56142555651354   -1.46638317762444
C         2.14981709869548    2.70218916361135   -1.16014442576211
C         3.43320741787386    0.70972206290551   -0.45116483962853
C         1.81389989735346    3.02926879855074    0.17163291902007
C        -0.45979458290834    3.56352614743728   -0.60096997387874
C        -1.80821358590209    3.13070237623787   -0.44768873090856
C         0.46723605698273    3.47379239630135    0.46019255400773
C        -2.27476476995105    2.59369172786203    0.77188558076688
C        -3.49395076510168    0.89069868144825   -0.51852963136876
C        -3.53108033629652   -0.51748324690904   -0.73005542703323
C        -3.14471536270095    1.43772711562990    0.73533000246868
C        -2.41114889889175   -2.58465573309405   -0.00598964348144
C        -3.22017645941152   -1.42576316544027    0.30520161405068
C        -0.25666002321924   -3.56141421959724    0.71768483621943
C        -1.58221360678127   -3.12389968827698    1.00171821176756
C         0.55001295969552   -3.31910647419778    1.88353744030421
C         2.39800059498623   -2.70932507108398    0.41588431637999
C         3.25430625153931   -1.57156777500281    0.45189768106616
C         1.85714964921331   -2.89958695203521    1.73491166480249
C         3.24697170246766   -1.05288720592989    1.79336876271008
C         2.38875345966051   -1.87976910962313    2.59935190670638
C         3.32731858328295    1.20067367449502    0.86833841215986
C         2.53101417086453    2.34139162428792    1.17463625377790
C         3.28296267173631    0.31215467538165    1.99847011594652
C         1.99045209982906    2.16354648198434    2.49554153431435
C         2.46219337197370    0.90894137787200    3.01830766482692
C        -0.07855388064303    3.20272635474697    1.73378682282583
C        -1.42699303405038    2.76992792668605    1.88708106408530
C         0.70555397248600    2.58763519294672    2.77085089659604
C        -1.48307136134561    1.88515081413384    3.01961945943899
C        -0.16284988674498    1.77530605555172    3.58068661348795
C        -3.11283920724208    0.52994699215483    1.81627399644481
C        -3.14985561021513   -0.87824243439624    1.60465170074882
C        -2.31314287897982    0.78227593165753    2.98480820801259
C        -1.60141406742365   -2.60905539379508    2.34454225680492
C        -0.28164915589547   -2.73682299879885    2.90289223944168
C        -2.37330013596152   -1.50329083844792    2.64142436645778
C        -1.85860091081028   -0.47788002908711    3.50946663348610
C         1.58763386940542   -1.30783192546045    3.57787117422852
C         1.62514579400676    0.11690942369569    3.79188737593215
C         0.28403615415810    0.55954255579468    4.07924091022538
C         0.22334859412932   -1.74570949863712    3.73296089444831
C        -0.58231170769665   -0.59161486966328    4.04282613681219
70
 energy: -149.966886984239 gnorm: 0.005278117311 xtb: 6.3.3 (4ae9cef)
C         0.33151914593714   -0.11904397170753   -4.11684532192202
C         0.36903197299648    1.30601963686562   -3.90276801940693
C        -0.97238158300191    1.74877046815064   -3.61533628709226
C        -1.03308954531202   -0.55702023178716   -3.96171066977531
C        -1.83893210105546    0.59735253357980   -3.65176528777275
C        -1.30130131838160   -1.77145460884146   -3.34275188450157
C        -0.22344473709752   -2.58723309453224   -2.85021271831197
C         1.36868560116756   -0.91450273049568   -3.64628872120489
C         1.08442151133213   -2.16748583237213   -2.99892539626993
C         2.47344347130962   -0.32183594262663   -2.94052387402602
C         1.44208616906327    1.87377523326645   -3.22741117113012
C         2.50938879003015    1.04396814545195   -2.73533148450845
C         1.21767829101515    2.89434885417950   -2.23851398665425
C        -1.18251544367290    2.74007453374373   -2.66503885567852
C        -0.06795214417781    3.31871305011775   -1.96303506966305
C        -2.25529146306863    2.61664411484114   -1.71437753336165
C        -2.87802778299097    0.48718609210152   -2.73631440018341
C        -3.08581474152239    1.51308422663148   -1.74928847765485
C        -2.37363657726002   -1.87755287071250   -2.38948921489942
C        -3.14599691371672   -0.77118352567709   -2.09244084442562
C        -0.63811191058738   -3.20088901875721   -1.61650635365493
C        -1.96315174216604   -2.76356577891049   -1.33258828061237
C         0.28410166203127   -3.47789278507447   -0.58408621823485
C         2.01726059960221   -2.34865821842284   -1.91838424383886
C         2.87325348659014   -1.21127348913150   -1.88239221458272
C         1.65636481830006   -3.03746515542109   -0.74006858596315
C         3.39887222707551   -0.72214612122349   -0.66683366680382
C         2.94625115769808    1.56172565953216   -1.46583029086151
C         2.15024576707403    2.70203695614297   -1.15968566734052
C         3.43660765836918    0.71091278353234   -0.45155193740146
C         1.81616004485304    3.03212343557234    0.17169751497850
C        -0.46001273114654    3.56358786988497   -0.60035989471797
C        -1.80794202168088    3.13093598340079   -0.44712859494634
C         0.46724326553099    3.47738248511545    0.46074388385979
C        -2.27673799467800    2.59666888439747    0.77268015911937
C        -3.49414446795678    0.89037411430197   -0.51800509107175
C        -3.53123387592627   -0.51729714007848   -0.72946327114273
C        -3.14814676411014    1.43878065067012    0.73604441170762
C        -2.41325437631881   -2.58761906891883   -0.00609618913320
C        -3.22363500342916   -1.42677637088268    0.30559955833703
C        -0.25706436948567   -3.56150673927954    0.71718705160270
C        -1.58211914250700   -3.12415307451160    1.00111072911220
C         0.54950196549220   -3.31873331948449    1.88383250262500
C         2.39827930929190   -2.70920887517573    0.41532048557140
C         3.25426086896283   -1.57185739645931    0.45130473834486
C         1.85736892737282   -2.89895791126390    1.73514159866762
C         3.24639328819030   -1.05331285857925    1.79354489572501
C         2.38863734605955   -1.87974001671609    2.60047581690533
C         3.32728481980787    1.20112213514722    0.86785226463686
C         2.53127882343742    2.34141724518314    1.17402988733615
C         3.28237792170868    0.31249622121366    1.99873237054487
C         1.99064785081615    2.16284711321391    2.49553946400904
C         2.46206628056244    0.90855783464411    3.01934274270303
C        -0.07896139557665    3.20296912767289    1.73333231929705
C        -1.42690833413290    2.77034105942165    1.88657961845662
C         0.70501328824895    2.58719906518911    2.77101348232561
C        -1.48235197694640    1.88513597557744    3.01966752121673
C        -0.16257286404206    1.77484455599490    3.58170555859291
C        -3.11316966635009    0.52978566443689    1.81572286888419
C        -3.15018818446814   -0.87788154680457    1.60421408674779
C        -2.31289437409055    0.78159951045961    2.98478502323207
C        -1.60068294921260   -2.60904927997592    2.34456792971663
C        -0.28135828626390   -2.73669756480508    2.90399512553178
C        -2.37302310432983   -1.50266828310103    2.64162615750001
C        -1.85809786532041   -0.47804391655742    3.51045799277086
C         1.58856102860555   -1.30866597728372    3.58214547033709
C         1.62608812178615    0.11638720425149    3.79621528242724
C         0.28467780374481    0.55913732807376    4.08364405856540
C         0.22396892797246   -1.74664839762063    3.73727493918989
C        -0.58187446005194   -0.59228463876816    4.04722220817093
70
 energy: -149.966906321718 gnorm: 0.001719655511 xtb: 6.3.3 (4ae9cef)
C         0.33117783506734   -0.11874784768644   -4.11812502305820
C         0.36869232311484    1.30613636669126   -3.90407911657501
C        -0.97255133302405    1.74883206049435   -3.61668255752252
C        -1.03325433312052   -0.55667574306335   -3.96301378206290
C        -1.83899948426766    0.59755284212716   -3.65310586866735
C        -1.30107739012435   -1.77093843750834   -3.34250434136323
C        -0.22375469085930   -2.58668571932875   -2.85000403437465
C         1.36825478449460   -0.91418725325436   -3.64595844459704
C         1.08437950586254   -2.16683180599090   -2.99872185700375
C         2.47280574715424   -0.32198048104641   -2.94035621057703
C         1.44164694310838    1.87341419829476   -3.22720896924893
C         2.50876999142429    1.04411086276934   -2.73514078549613
C         1.21761603825178    2.89368528537212   -2.23853586739000
C        -1.18231781914187    2.73949414084004   -2.66495655385266
C        -0.06828495982181    3.31812418999047   -1.96299619036666
C        -2.25468937704952    2.61636354268319   -1.71444147254772
C        -2.87741988842476    0.48715657799138   -2.73621262496108
C        -3.08538746462609    1.51258260817112   -1.74936049944829
C        -2.37301106026535   -1.87729735519984   -2.38947211767303
C        -3.14551867911746   -0.77069804388664   -2.09235732999600
C        -0.63810033251514   -3.20058695368144   -1.61613020653878
C        -1.96283073568690   -2.76334950104784   -1.33227541766057
C         0.28375715082867   -3.47849711964522   -0.58411186453542
C         2.01715087672439   -2.34836686984057   -1.91798709964448
C         2.87293358539110   -1.21125759951017   -1.88200937390673
C         1.65697130358672   -3.03775193067960   -0.74021481367925
C         3.39931055830898   -0.72265058563290   -0.66697779407446
C         2.94593586553096    1.56162947313071   -1.46547235121881
C         2.15011610198674    2.70165445971200   -1.15938655530909
C         3.43707137340157    0.71140817113425   -0.45155421202318
C         1.81678937575853    3.03241941681980    0.17163737197968
C        -0.46001415169299    3.56316492846259   -0.60009222959422
C        -1.80763895258718    3.13062201334107   -0.44689103800070
C         0.46692299921607    3.47797353414164    0.46088535242617
C        -2.27680224525438    2.59734477661650    0.77279682506704
C        -3.49378570322067    0.89016943936754   -0.51777056207691
C        -3.53084937396194   -0.51717071817175   -0.72918225298220
C        -3.14882284238658    1.43865599741137    0.73613470920810
C        -2.41333996341439   -2.58828757715220   -0.00618250894038
C        -3.22427988612550   -1.42663065720398    0.30572165003720
C        -0.25716212194838   -3.56109939828742    0.71693495217648
C        -1.58189495633779   -3.12384758106066    1.00079143129001
C         0.54917401292536   -3.31816500655584    1.88389830855993
C         2.39807607660661   -2.70885352269230    0.41508303443548
C         3.25385890017170   -1.57175458702481    0.45105604013958
C         1.85730628854017   -2.89830184510098    1.73518614737494
C         3.24573385544830   -1.05344966377350    1.79355243453776
C         2.38813580033760   -1.87936542459048    2.60040761349167
C         3.32686826937571    1.20112394879527    0.86759217980514
C         2.53104678868730    2.34114550495241    1.17368774011421
C         3.28170836119270    0.31263919527105    1.99876885411011
C         1.99054865261439    2.16220579508775    2.49536986189010
C         2.46153721560563    0.90823907743271    3.01915921721593
C        -0.07907816629548    3.20265494737623    1.73297359545105
C        -1.42670989922310    2.77012346433084    1.88618062794048
C         0.70464678547861    2.58664265705336    2.77090906312759
C        -1.48176637342234    1.88489031141024    3.01946410586318
C        -0.16244019512816    1.77431998599090    3.58141129463366
C        -3.11287793790679    0.52967341458492    1.81530691571649
C        -3.14991022077084   -0.87766358402478    1.60388089470143
C        -2.31247315714697    0.78111373455915    2.98454983766927
C        -1.60007975266950   -2.60877237528649    2.34443200113610
C        -0.28119659759869   -2.73612032865590    2.90386120700130
C        -2.37258095613580   -1.50216837086084    2.64155208758148
C        -1.85754534487522   -0.47801612334842    3.51015928633495
C         1.58866156575967   -1.30878306909648    3.58349999324765
C         1.62618115920499    0.11609523910856    3.79754584678427
C         0.28493796043821    0.55879297792765    4.08494496795760
C         0.22423441152660   -1.74671406118740    3.73861369905906
C        -0.58151211697786   -0.59248799836668    4.04852277890228
70
 energy: -149.966908777384 gnorm: 0.000502949299 xtb: 6.3.3 (4ae9cef)
C         0.33105906441343   -0.11865878487770   -4.11811933779188
C         0.36857294993382    1.30605817918896   -3.90410011325190
C        -0.97251531660365    1.74870350036639   -3.61673640657962
C        -1.03321211169244   -0.55653837990302   -3.96302696307294
C        -1.83886700413970    0.59755524772713   -3.65315526998798
C        -1.30088033749055   -1.77062807004290   -3.34205906089714
C        -0.22384574436922   -2.58634594353340   -2.84991812334901
C         1.36800762055397   -0.91401583464713   -3.64545951653197
C         1.08426316516331   -2.16649064168422   -2.99862226193510
C         2.47244750337267   -0.32196698746979   -2.94026915829668
C         1.44139383433708    1.87311972573158   -3.22678470816310
C         2.50841774642742    1.04409880246348   -2.73506277059907
C         1.21748988489200    2.89334142271191   -2.23854521820420
C        -1.18213987527944    2.73905200807703   -2.66462052427895
C        -0.06838999318052    3.31776272012631   -1.96301151000655
C        -2.25441256703169    2.61613381097647   -1.71450041419298
C        -2.87695979272225    0.48709421944028   -2.73586588602926
C        -3.08509753893578    1.51237723910001   -1.74941928615211
C        -2.37271763273183   -1.87707879518069   -2.38946551735733
C        -3.14520355305031   -0.77049596821669   -2.09234984721823
C        -0.63799954897775   -3.20026836178900   -1.61593446393873
C        -1.96263935697187   -2.76304980967539   -1.33209558334125
C         0.28348894769104   -3.47840040928004   -0.58404725627915
C         2.01692293821856   -2.34813660122945   -1.91774942008568
C         2.87264503569923   -1.21110959305844   -1.88177725087139
C         1.65713555861866   -3.03751083622723   -0.74020721863437
C         3.39912284361007   -0.72287781108409   -0.66697793766982
C         2.94564706671649    1.56144132132609   -1.46528933582137
C         2.14987579377254    2.70137682109476   -1.15921750966863
C         3.43689411231407    0.71163201825284   -0.45148854972039
C         1.81694888813433    3.03218925895596    0.17157608676517
C        -0.45992939372621    3.56278010095986   -0.59999891962231
C        -1.80746877269791    3.13027255877649   -0.44680718324653
C         0.46664557662284    3.47787371811563    0.46091429695640
C        -2.27652246520948    2.59742286117233    0.77276163375688
C        -3.49342026824700    0.89009950952885   -0.51767974774262
C        -3.53047195673579   -0.51714210500442   -0.72907558654715
C        -3.14882536890395    1.43836805459378    0.73609166762445
C        -2.41306081346796   -2.58836147546962   -0.00624013248201
C        -3.22425179286020   -1.42633581817927    0.30575963841062
C        -0.25711954735974   -3.56072099551517    0.71681880333347
C        -1.58175522819759   -3.12350218521168    1.00065661213850
C         0.54907890673287   -3.31781407659495    1.88394431920176
C         2.39780583377364   -2.70859384982975    0.41500298295035
C         3.25353106730517   -1.57156441746596    0.45097456295453
C         1.85718849735894   -2.89796165788488    1.73523822969881
C         3.24537320307785   -1.05343723914785    1.79359080635323
C         2.38775289512125   -1.87906581889503    2.60008203581100
C         3.32652879287721    1.20098912980130    0.86746492150911
C         2.53075639344858    2.34092559068412    1.17353401762985
C         3.28133766266805    0.31262858988615    1.99879764545614
C         1.99041126807472    2.16187438497686    2.49531609613304
C         2.46113520162046    0.90806908191107    3.01875932912581
C        -0.07904955141539    3.20232802817436    1.73275521421860
C        -1.42658750744365    2.76982022413094    1.88594547501136
C         0.70453171740043    2.58629639649177    2.77085171472607
C        -1.48148761768389    1.88467028738121    3.01936352753049
C        -0.16239553163331    1.77400292256886    3.58092592916822
C        -3.11253530597206    0.52964741373096    1.81507104112379
C        -3.14958820863778   -0.87759303504704    1.60367974070140
C        -2.31217224023790    0.78091130368503    2.98444051655846
C        -1.59979199307165   -2.60854447792159    2.34439598009366
C        -0.28113458232993   -2.73567639954609    2.90348743253449
C        -2.37227785744134   -1.50196202477177    2.64151009059809
C        -1.85721203289491   -0.47795295626486    3.50967757343857
C         1.58855878573237   -1.30870627230722    3.58356461727110
C         1.62607141502177    0.11601097639547    3.79758506204618
C         0.28498265312803    0.55865730679880    4.08495094878678
C         0.22428532666170   -1.74658590456482    3.73865868918333
C        -0.58136974114996   -0.59249119778188    4.04853075076772
70
 energy: -149.966909034294 gnorm: 0.000118924716 xtb: 6.3.3 (4ae9cef)
C         0.33112547827504   -0.11871515789568   -4.11791220884518
C         0.36863946804361    1.30604603463694   -3.90388595023771
C        -0.97249029849544    1.74870494044454   -3.61651343135153
C        -1.03318891804467   -0.55660710079007   -3.96281476547210
C        -1.83886790269353    0.59752201898135   -3.65293355262298
C        -1.30092554431782   -1.77073682012378   -3.34210096002736
C        -0.22379165627257   -2.58645221267834   -2.84998606668929
C         1.36809868381774   -0.91408328931811   -3.64551889229974
C         1.08426910536700   -2.16661526181966   -2.99868812946286
C         2.47256932212476   -0.32193761044932   -2.94032827737351
C         1.44148770656156    1.87319301690994   -3.22681785963055
C         2.50853715155416    1.04407729005347   -2.73512687440179
C         1.21750123233108    2.89347560139995   -2.23856742424912
C        -1.18217955597654    2.73917135607746   -2.66462766701323
C        -0.06833089160564    3.31788321059922   -1.96304407336177
C        -2.25453488939931    2.61619632805250   -1.71451302495925
C        -2.87708460893127    0.48709883231943   -2.73587700052276
C        -3.08518968879278    1.51247857697137   -1.74943102884207
C        -2.37284394367753   -1.87712793835845   -2.38949517800927
C        -3.14530357032920   -0.77058566946596   -2.09239098232786
C        -0.63799336907481   -3.20032307320068   -1.61599980138532
C        -1.96270276285062   -2.76308500077857   -1.33214665721759
C         0.28352654020797   -3.47835925465469   -0.58404912848364
C         2.01693615604499   -2.34819364101951   -1.91781630380416
C         2.87270558504251   -1.21110606906861   -1.88184207922890
C         1.65708324853896   -3.03750081332388   -0.74019647443147
C         3.39910091512031   -0.72282926835620   -0.66696747292205
C         2.94570675647655    1.56145077224705   -1.46535169379559
C         2.14989356374515    2.70144904586940   -1.15926536816772
C         3.43686886169276    0.71158424436298   -0.45149135282427
C         1.81689671582800    3.03217995528541    0.17158376350117
C        -0.45992006118375    3.56285461498510   -0.60004404594659
C        -1.80752930374601    3.13032392473294   -0.44684582756575
C         0.46668273214780    3.47783702797784    0.46090274799483
C        -2.27653224324560    2.59737131206835    0.77275499708421
C        -3.49348347124761    0.89014351724008   -0.51771793936400
C        -3.53053819055797   -0.51717247042306   -0.72912371691906
C        -3.14877796746102    1.43839115012914    0.73608805559224
C        -2.41307031942387   -2.58831044749280   -0.00623163420653
C        -3.22420718073030   -1.42636277770921    0.30574885183185
C        -0.25709428594484   -3.56079186186046    0.71685908600661
C        -1.58180247658563   -3.12355260161815    1.00071249323845
C         0.54914628894356   -3.31793117444542    1.88395675961322
C         2.39783540905328   -2.70866201624230    0.41504272942882
C         3.25360509922080   -1.57157474113841    0.45101670633646
C         1.85720736202495   -2.89809425780886    1.73525476098648
C         3.24550753553238   -1.05341648639516    1.79361461121819
C         2.38785451479251   -1.87914098078010    2.60008625309121
C         3.32660571727263    1.20098260867329    0.86750687020904
C         2.53079194267491    2.34098034468302    1.17359410536319
C         3.28147425653514    0.31259890960892    1.99881591466065
C         1.99043827228195    2.16199727841418    2.49537511285837
C         2.46124271953389    0.90813600661095    3.01878713827835
C        -0.07902102050867    3.20238545239248    1.73281510096055
C        -1.42663056771065    2.76985557146896    1.88601382948833
C         0.70460619289880    2.58640444700736    2.77089878297824
C        -1.48159755562797    1.88471787751212    3.01942962051613
C        -0.16242455872028    1.77411366474421    3.58097765327754
C        -3.11258485509755    0.52967527920463    1.81514183892612
C        -3.14963773574988   -0.87763996963876    1.60373502644480
C        -2.31225240072845    0.78100052310668    2.98451137242988
C        -1.59990530095537   -2.60860574414147    2.34444761575188
C        -0.28116934640820   -2.73579415894683    2.90350510875526
C        -2.37236403283677   -1.50206389786136    2.64155153097127
C        -1.85732815194572   -0.47795805991285    3.50972894960592
C         1.58855289144546   -1.30869521777088    3.58334096786393
C         1.62606676776197    0.11606568309914    3.79736709772125
C         0.28493688275603    0.55872466628720    4.08473972696475
C         0.22423833871024   -1.74658743569646    3.73843807226280
C        -0.58144078748060   -0.59245860297353    4.04831959175060
